@<TRIPOS>MOLECULE
1397_4o0x_orig
 46 49 0 0 0
SMALL
GASTEIGER

@<TRIPOS>ATOM
      1 C           1.0616   -0.0468    0.0238 C.3     1  UNL1       -0.0058
      2 C           0.5866    1.1250    0.8127 C.ar    1  UNL1        0.1144
      3 N           0.9499    2.3624    0.5271 N.ar    1  UNL1       -0.2321
      4 C           0.4438    3.1457    1.5236 C.ar    1  UNL1        0.0898
      5 C           0.5440    4.5368    1.6892 C.ar    1  UNL1       -0.0331
      6 C          -0.0491    5.1353    2.8088 C.ar    1  UNL1       -0.0442
      7 C          -0.7332    4.3625    3.7475 C.ar    1  UNL1        0.0271
      8 C          -0.8646    2.9783    3.5779 C.ar    1  UNL1       -0.0202
      9 C          -0.2504    2.3853    2.4583 C.ar    1  UNL1        0.0775
     10 N          -0.1959    1.0821    1.9660 N.ar    1  UNL1       -0.2645
     11 C          -0.8402   -0.0567    2.5425 C.ar    1  UNL1        0.2409
     12 N          -1.0654   -1.1197    1.7670 N.ar    1  UNL1       -0.2002
     13 C          -1.6931   -2.1239    2.3678 C.ar    1  UNL1        0.1234
     14 N          -2.0694   -2.1588    3.6393 N.ar    1  UNL1       -0.2031
     15 C          -1.7713   -1.0716    4.3306 C.ar    1  UNL1        0.2170
     16 N          -1.2027    0.0127    3.8281 N.ar    1  UNL1       -0.1785
     17 N          -2.0827   -1.0584    5.6710 N.pl3   1  UNL1       -0.3274
     18 C          -1.3135    4.9819    4.9004 C.1     1  UNL1       -0.0634
     19 C          -1.8212    5.5087    5.8552 C.1     1  UNL1       -0.0624
     20 C          -2.5000    6.1922    6.9723 C.3     1  UNL1        0.1267
     21 C          -4.0256    6.1288    6.7893 C.3     1  UNL1       -0.0126
     22 C          -4.5035    6.9656    5.6012 C.3     1  UNL1       -0.0495
     23 C          -4.0187    8.4100    5.6974 C.3     1  UNL1       -0.0528
     24 C          -2.5069    8.5009    5.8933 C.3     1  UNL1       -0.0495
     25 C          -2.0433    7.6564    7.0806 C.3     1  UNL1       -0.0126
     26 O          -2.1573    5.5121    8.1787 O.3     1  UNL1       -0.3765
     27 H           0.6776    0.0151   -0.9991 H       1  UNL1        0.0308
     28 H           0.7969   -1.0213    0.4291 H       1  UNL1        0.0308
     29 H           2.1561   -0.0269   -0.0274 H       1  UNL1        0.0308
     30 H           1.0798    5.1312    0.9568 H       1  UNL1        0.0640
     31 H           0.0326    6.2119    2.9394 H       1  UNL1        0.0630
     32 H          -1.4256    2.3933    4.2992 H       1  UNL1        0.0651
     33 H          -1.9155   -2.9971    1.7638 H       1  UNL1        0.1049
     34 H          -2.1465   -0.1201    6.0352 H       1  UNL1        0.1452
     35 H          -2.8283   -1.7073    5.8885 H       1  UNL1        0.1452
     36 H          -4.3555    5.0885    6.6695 H       1  UNL1        0.0303
     37 H          -4.5183    6.4880    7.7036 H       1  UNL1        0.0303
     38 H          -4.1455    6.5215    4.6647 H       1  UNL1        0.0266
     39 H          -5.5986    6.9463    5.5562 H       1  UNL1        0.0266
     40 H          -4.3051    8.9552    4.7905 H       1  UNL1        0.0265
     41 H          -4.5213    8.9037    6.5381 H       1  UNL1        0.0265
     42 H          -1.9981    8.1705    4.9798 H       1  UNL1        0.0266
     43 H          -2.2187    9.5460    6.0509 H       1  UNL1        0.0266
     44 H          -2.4439    8.0948    8.0059 H       1  UNL1        0.0303
     45 H          -0.9519    7.7149    7.1797 H       1  UNL1        0.0303
     46 H          -2.5615    5.9971    8.9164 H       1  UNL1        0.2114
@<TRIPOS>BOND
     1     1     2    1
     2     2     3   ar
     3     3     4   ar
     4     4     5   ar
     5     5     6   ar
     6     6     7   ar
     7     7     8   ar
     8     8     9   ar
     9     4     9   ar
    10     9    10   ar
    11     2    10   ar
    12    10    11    1
    13    11    12   ar
    14    12    13   ar
    15    13    14   ar
    16    14    15   ar
    17    15    16   ar
    18    11    16   ar
    19    15    17    1
    20     7    18    1
    21    18    19    3
    22    19    20    1
    23    20    21    1
    24    21    22    1
    25    22    23    1
    26    23    24    1
    27    24    25    1
    28    20    25    1
    29    20    26    1
    30     1    27    1
    31     1    28    1
    32     1    29    1
    33     5    30    1
    34     6    31    1
    35     8    32    1
    36    13    33    1
    37    17    34    1
    38    17    35    1
    39    21    36    1
    40    21    37    1
    41    22    38    1
    42    22    39    1
    43    23    40    1
    44    23    41    1
    45    24    42    1
    46    24    43    1
    47    25    44    1
    48    25    45    1
    49    26    46    1
@<TRIPOS>MOLECULE
1683_5htz_pH7
 44 46 0 0 0
SMALL
GASTEIGER

@<TRIPOS>ATOM
      1 C          -5.0432    6.0691    6.1820 C.ar    1  UNL1        0.0080
      2 C          -4.9201    5.6101    4.7797 C.ar    1  UNL1        0.0226
      3 C          -5.3199    4.4042    4.2395 C.ar    1  UNL1       -0.0281
      4 C          -5.0183    4.2713    2.8513 C.ar    1  UNL1        0.0552
      5 C          -4.3501    5.3682    2.3290 C.ar    1  UNL1        0.0477
      6 C          -3.7059    5.5357    0.9372 C.3     1  UNL1        0.1317
      7 C          -2.5704    4.4844    0.8029 C.3     1  UNL1       -0.0237
      8 C          -4.6999    5.3998   -0.2075 C.3     1  UNL1        0.1361
      9 S          -3.8765    5.8733   -1.7029 S.O2    1  UNL1        0.0903
     10 O          -2.7609    5.0018   -1.9614 O.2     1  UNL1       -0.1422
     11 O          -4.8782    6.1609   -2.7133 O.2     1  UNL1       -0.1422
     12 N          -3.1376    7.3104   -1.3979 N.pl3   1  UNL1       -0.0959
     13 C          -2.5406    7.4128   -0.2115 C.cat   1  UNL1        0.3517
     14 N          -1.3735    8.0645   -0.0564 N.2     1  UNL1       -0.2936
     15 N          -3.0717    6.8714    0.8974 N.pl3   1  UNL1       -0.2282
     16 C          -3.3053    8.4658   -2.2763 C.3     1  UNL1        0.0748
     17 S          -4.1799    6.5737    3.5621 S.2     1  UNL1       -0.0881
     18 CL         -5.4016    2.8354    2.0073 Cl      1  UNL1       -0.0826
     19 C          -6.0953    5.6402    7.0167 C.ar    1  UNL1       -0.0352
     20 C          -6.1444    6.0268    8.3651 C.ar    1  UNL1        0.0436
     21 C          -7.1980    5.5933    9.2430 C.1     1  UNL1       -0.0650
     22 C          -8.1691    5.2019   10.0201 C.1     1  UNL1       -0.1003
     23 C          -9.3011    4.7456   10.9260 C.3     1  UNL1       -0.0022
     24 C          -5.1266    6.8438    8.8352 C.ar    1  UNL1        0.0430
     25 N          -4.1020    7.2920    8.0706 N.ar    1  UNL1       -0.2614
     26 C          -4.0861    6.8925    6.7762 C.ar    1  UNL1        0.0358
     27 H          -5.7862    3.6232    4.8304 H       1  UNL1        0.0644
     28 H          -2.8722    3.6539    0.1552 H       1  UNL1        0.0268
     29 H          -1.6680    4.9328    0.3650 H       1  UNL1        0.0268
     30 H          -2.2670    4.0509    1.7565 H       1  UNL1        0.0268
     31 H          -5.0779    4.3882   -0.3563 H       1  UNL1        0.0571
     32 H          -5.5514    6.0796   -0.1011 H       1  UNL1        0.0571
     33 H          -0.8757    8.0072    0.8256 H       1  UNL1        0.2542
     34 H          -0.8012    8.2624   -0.8728 H       1  UNL1        0.2542
     35 H          -3.0196    7.4252    1.7496 H       1  UNL1        0.2453
     36 H          -3.8790    9.2287   -1.7367 H       1  UNL1        0.0619
     37 H          -2.3340    8.8665   -2.5728 H       1  UNL1        0.0619
     38 H          -3.8654    8.2150   -3.1807 H       1  UNL1        0.0619
     39 H          -6.8818    4.9971    6.6276 H       1  UNL1        0.0637
     40 H          -8.8973    4.1890   11.7762 H       1  UNL1        0.0362
     41 H          -9.8535    5.6128   11.2984 H       1  UNL1        0.0362
     42 H          -9.9861    4.0992   10.3704 H       1  UNL1        0.0362
     43 H          -5.0966    7.1702    9.8720 H       1  UNL1        0.0842
     44 H          -3.2250    7.2582    6.2241 H       1  UNL1        0.0836
@<TRIPOS>UNITY_ATOM_ATTR
14 1
charge 1
@<TRIPOS>BOND
     1     1     2    1
     2     2     3   ar
     3     3     4   ar
     4     4     5   ar
     5     6     8    1
     6     8     9    1
     7     9    10    2
     8     9    11    2
     9     9    12    1
    10    12    13    1
    11    13    14    2
    12    13    15    1
    13     6    15    1
    14    12    16    1
    15     5    17   ar
    16     2    17   ar
    17     4    18    1
    18     1    19   ar
    19    19    20   ar
    20    20    21    1
    21    21    22    3
    22    22    23    1
    23    20    24   ar
    24    24    25   ar
    25    25    26   ar
    26     1    26   ar
    27     3    27    1
    28     7    28    1
    29     7    29    1
    30     7    30    1
    31     8    31    1
    32     8    32    1
    33    14    33    1
    34    14    34    1
    35    15    35    1
    36    16    36    1
    37    16    37    1
    38    16    38    1
    39    19    39    1
    40    23    40    1
    41    23    41    1
    42    23    42    1
    43    24    43    1
    44    26    44    1
    45     6     7    1
    46     6     5    1
@<TRIPOS>MOLECULE
2457_1hvh_orig
 82 86 0 0 0
SMALL
GASTEIGER

@<TRIPOS>ATOM
      1 N           0.9787    0.3866    0.1197 N.2     1  UNL1        0.0067
      2 C           0.3483    0.0680    1.2139 C.cat   1  UNL1        0.3867
      3 N          -1.0293   -0.1470    1.1306 N.pl3   1  UNL1       -0.2142
      4 C          -1.5088   -1.5487    1.2786 C.3     1  UNL1        0.1042
      5 C          -1.8297   -1.9189    2.7636 C.3     1  UNL1        0.1160
      6 O          -1.9053   -3.3503    2.9322 O.3     1  UNL1       -0.3859
      7 C          -0.7603   -1.4158    3.7674 C.3     1  UNL1        0.1160
      8 O          -0.9164   -2.0578    5.0349 O.3     1  UNL1       -0.3859
      9 C           0.6543   -1.5240    3.1416 C.3     1  UNL1        0.1042
     10 N           0.9305   -0.2170    2.4609 N.pl3   1  UNL1       -0.2142
     11 C           1.8041    0.7638    3.1304 C.3     1  UNL1        0.0862
     12 C           1.0997    1.6690    4.1241 C.ar    1  UNL1       -0.0158
     13 C           0.9827    1.3208    5.4772 C.ar    1  UNL1       -0.0554
     14 C           0.4433    2.2147    6.4096 C.ar    1  UNL1       -0.0560
     15 C           0.0043    3.4815    6.0127 C.ar    1  UNL1       -0.0222
     16 C           0.0991    3.8287    4.6589 C.ar    1  UNL1       -0.0560
     17 C           0.6353    2.9320    3.7254 C.ar    1  UNL1       -0.0554
     18 C          -0.5680    4.4463    7.0182 C.3     1  UNL1        0.0692
     19 O           0.2124    5.6318    7.0877 O.3     1  UNL1       -0.3904
     20 C           1.8095   -2.0812    4.0102 C.3     1  UNL1        0.0069
     21 C           1.6919   -3.5336    4.4494 C.ar    1  UNL1       -0.0442
     22 C           1.5652   -4.5804    3.5231 C.ar    1  UNL1       -0.0585
     23 C           1.4882   -5.9104    3.9510 C.ar    1  UNL1       -0.0615
     24 C           1.5551   -6.2141    5.3097 C.ar    1  UNL1       -0.0617
     25 C           1.7005   -5.1881    6.2393 C.ar    1  UNL1       -0.0615
     26 C           1.7702   -3.8591    5.8124 C.ar    1  UNL1       -0.0585
     27 C          -2.6584   -1.9468    0.3290 C.3     1  UNL1        0.0069
     28 C          -2.3398   -1.8622   -1.1480 C.ar    1  UNL1       -0.0442
     29 C          -1.2729   -2.5755   -1.7190 C.ar    1  UNL1       -0.0585
     30 C          -1.0085   -2.4840   -3.0878 C.ar    1  UNL1       -0.0615
     31 C          -1.8132   -1.6908   -3.9018 C.ar    1  UNL1       -0.0617
     32 C          -2.8849   -0.9939   -3.3496 C.ar    1  UNL1       -0.0615
     33 C          -3.1520   -1.0864   -1.9836 C.ar    1  UNL1       -0.0585
     34 C          -1.9732    0.9417    1.4744 C.3     1  UNL1        0.0862
     35 C          -2.3104    1.9742    0.4009 C.ar    1  UNL1       -0.0158
     36 C          -1.8192    1.9514   -0.9059 C.ar    1  UNL1       -0.0554
     37 C          -1.9951    3.0515   -1.7650 C.ar    1  UNL1       -0.0560
     38 C          -2.6731    4.2040   -1.3421 C.ar    1  UNL1       -0.0222
     39 C          -3.2881    4.1781   -0.0878 C.ar    1  UNL1       -0.0560
     40 C          -3.1161    3.0759    0.7647 C.ar    1  UNL1       -0.0554
     41 C          -2.5553    5.4866   -2.1345 C.3     1  UNL1        0.0692
     42 O          -3.7059    6.3152   -2.0358 O.3     1  UNL1       -0.3904
     43 C           2.3092    0.3683    0.0964 C.1     1  UNL1        0.2951
     44 N           3.4757    0.3419    0.0874 N.1     1  UNL1       -0.1505
     45 H          -0.6939   -2.2025    0.9495 H       1  UNL1        0.0701
     46 H          -2.8042   -1.5217    3.0697 H       1  UNL1        0.0653
     47 H          -2.7430   -3.6632    2.5472 H       1  UNL1        0.2100
     48 H          -0.9781   -0.3618    3.9677 H       1  UNL1        0.0653
     49 H          -1.3111   -2.9332    4.8441 H       1  UNL1        0.2100
     50 H           0.6294   -2.2650    2.3398 H       1  UNL1        0.0701
     51 H           2.6486    0.2754    3.6280 H       1  UNL1        0.0685
     52 H           2.2856    1.4196    2.3976 H       1  UNL1        0.0685
     53 H           1.3301    0.3571    5.8371 H       1  UNL1        0.0621
     54 H           0.3827    1.9124    7.4535 H       1  UNL1        0.0621
     55 H          -0.2297    4.8126    4.3267 H       1  UNL1        0.0621
     56 H           0.7163    3.2415    2.6842 H       1  UNL1        0.0621
     57 H          -1.5948    4.7124    6.7488 H       1  UNL1        0.0607
     58 H          -0.5905    4.0059    8.0209 H       1  UNL1        0.0607
     59 H           1.1459    5.3595    7.0674 H       1  UNL1        0.2098
     60 H           2.7399   -2.0249    3.4255 H       1  UNL1        0.0346
     61 H           1.9740   -1.4556    4.8895 H       1  UNL1        0.0346
     62 H           1.5362   -4.3780    2.4554 H       1  UNL1        0.0620
     63 H           1.3862   -6.7121    3.2249 H       1  UNL1        0.0618
     64 H           1.5015   -7.2474    5.6425 H       1  UNL1        0.0618
     65 H           1.7641   -5.4212    7.2991 H       1  UNL1        0.0618
     66 H           1.8856   -3.0756    6.5579 H       1  UNL1        0.0620
     67 H          -2.9267   -2.9964    0.5122 H       1  UNL1        0.0346
     68 H          -3.5583   -1.3677    0.5612 H       1  UNL1        0.0346
     69 H          -0.6304   -3.2085   -1.1112 H       1  UNL1        0.0620
     70 H          -0.1719   -3.0286   -3.5191 H       1  UNL1        0.0618
     71 H          -1.6050   -1.6154   -4.9655 H       1  UNL1        0.0618
     72 H          -3.5121   -0.3699   -3.9799 H       1  UNL1        0.0618
     73 H          -3.9900   -0.5295   -1.5717 H       1  UNL1        0.0620
     74 H          -2.9237    0.5216    1.8247 H       1  UNL1        0.0685
     75 H          -1.5537    1.4972    2.3210 H       1  UNL1        0.0685
     76 H          -1.2361    1.1042   -1.2612 H       1  UNL1        0.0621
     77 H          -1.5308    3.0217   -2.7494 H       1  UNL1        0.0621
     78 H          -3.8436    5.0463    0.2653 H       1  UNL1        0.0621
     79 H          -3.5680    3.1219    1.7544 H       1  UNL1        0.0621
     80 H          -1.6995    6.0546   -1.7510 H       1  UNL1        0.0607
     81 H          -2.3767    5.2854   -3.1957 H       1  UNL1        0.0607
     82 H          -4.4775    5.7493   -2.1983 H       1  UNL1        0.2098
@<TRIPOS>BOND
     1     1     2    2
     2     2     3    1
     3     3     4    1
     4     4     5    1
     5     5     7    1
     6     7     9    1
     7     9    10    1
     8     2    10    1
     9    10    11    1
    10    11    12    1
    11    12    13   ar
    12    13    14   ar
    13    14    15   ar
    14    15    16   ar
    15    16    17   ar
    16    12    17   ar
    17    15    18    1
    18    18    19    1
    19     9    20    1
    20    20    21    1
    21    21    22   ar
    22    22    23   ar
    23    23    24   ar
    24    24    25   ar
    25    25    26   ar
    26    21    26   ar
    27     4    27    1
    28    27    28    1
    29    28    29   ar
    30    29    30   ar
    31    30    31   ar
    32    31    32   ar
    33    32    33   ar
    34    28    33   ar
    35     3    34    1
    36    34    35    1
    37    35    36   ar
    38    36    37   ar
    39    37    38   ar
    40    38    39   ar
    41    39    40   ar
    42    35    40   ar
    43    38    41    1
    44    41    42    1
    45     1    43    1
    46    43    44    3
    47     4    45    1
    48     6    47    1
    49     8    49    1
    50     9    50    1
    51    11    51    1
    52    11    52    1
    53    13    53    1
    54    14    54    1
    55    16    55    1
    56    17    56    1
    57    18    57    1
    58    18    58    1
    59    19    59    1
    60    20    60    1
    61    20    61    1
    62    22    62    1
    63    23    63    1
    64    24    64    1
    65    25    65    1
    66    26    66    1
    67    27    67    1
    68    27    68    1
    69    29    69    1
    70    30    70    1
    71    31    71    1
    72    32    72    1
    73    33    73    1
    74    34    74    1
    75    34    75    1
    76    36    76    1
    77    37    77    1
    78    39    78    1
    79    40    79    1
    80    41    80    1
    81    41    81    1
    82    42    82    1
    83     5    46    1
    84     5     6    1
    85     7    48    1
    86     7     8    1
@<TRIPOS>MOLECULE
3656_4o0y_orig
 44 46 0 0 0
SMALL
GASTEIGER

@<TRIPOS>ATOM
      1 C           1.5792    1.5657    0.1766 C.3     1  UNL1       -0.0495
      2 C           0.3946    1.6358   -0.7769 C.3     1  UNL1        0.0089
      3 N           0.8488    1.3709   -2.1312 N.pl3   1  UNL1       -0.3147
      4 C          -0.0546    1.4125   -3.1469 C.ar    1  UNL1        0.2035
      5 N          -1.1585    2.1244   -3.1719 N.ar    1  UNL1       -0.2141
      6 C          -1.7261    1.8986   -4.3962 C.ar    1  UNL1        0.0914
      7 C          -2.9074    2.4369   -4.9336 C.ar    1  UNL1       -0.0330
      8 C          -3.3228    2.0391   -6.2125 C.ar    1  UNL1       -0.0442
      9 C          -2.5774    1.1172   -6.9469 C.ar    1  UNL1        0.0271
     10 C          -1.3829    0.5933   -6.4344 C.ar    1  UNL1       -0.0202
     11 C          -0.9743    0.9999   -5.1480 C.ar    1  UNL1        0.0791
     12 N           0.1075    0.6798   -4.3287 N.ar    1  UNL1       -0.2486
     13 C           1.1603   -0.2469   -4.6191 C.ar    1  UNL1        0.2421
     14 N           2.0696   -0.5002   -3.6655 N.ar    1  UNL1       -0.2001
     15 C           2.9900   -1.3988   -4.0006 C.ar    1  UNL1        0.1234
     16 N           3.0753   -2.0328   -5.1627 N.ar    1  UNL1       -0.2031
     17 C           2.1289   -1.7181   -6.0306 C.ar    1  UNL1        0.2170
     18 N           1.1689   -0.8329   -5.8208 N.ar    1  UNL1       -0.1785
     19 N           2.1619   -2.3344   -7.2635 N.pl3   1  UNL1       -0.3274
     20 C          -3.0366    0.6867   -8.2347 C.1     1  UNL1       -0.0634
     21 C          -3.4401    0.2953   -9.4112 C.1     1  UNL1       -0.0630
     22 C          -3.9104   -0.1609  -10.7827 C.3     1  UNL1        0.1212
     23 C          -2.7174   -0.2415  -11.7330 C.3     1  UNL1       -0.0249
     24 C          -4.6101   -1.5132  -10.6611 C.3     1  UNL1       -0.0249
     25 O          -4.8365    0.7995  -11.2797 O.3     1  UNL1       -0.3771
     26 H           2.0630    0.5835    0.1323 H       1  UNL1        0.0245
     27 H           1.2549    1.7381    1.2075 H       1  UNL1        0.0245
     28 H           2.3322    2.3190   -0.0780 H       1  UNL1        0.0245
     29 H          -0.3489    0.8873   -0.4777 H       1  UNL1        0.0459
     30 H          -0.0675    2.6268   -0.7060 H       1  UNL1        0.0459
     31 H           1.5889    0.6705   -2.2020 H       1  UNL1        0.1489
     32 H          -3.4894    3.1467   -4.3553 H       1  UNL1        0.0640
     33 H          -4.2402    2.4536   -6.6252 H       1  UNL1        0.0630
     34 H          -0.8060   -0.1154   -7.0193 H       1  UNL1        0.0651
     35 H           3.7407   -1.6382   -3.2546 H       1  UNL1        0.1049
     36 H           1.7089   -1.7641   -7.9630 H       1  UNL1        0.1452
     37 H           3.0959   -2.6653   -7.4698 H       1  UNL1        0.1452
     38 H          -1.9625   -0.9514  -11.3768 H       1  UNL1        0.0267
     39 H          -3.0351   -0.5479  -12.7361 H       1  UNL1        0.0267
     40 H          -2.2371    0.7380  -11.8429 H       1  UNL1        0.0267
     41 H          -5.4844   -1.4441  -10.0031 H       1  UNL1        0.0267
     42 H          -4.9786   -1.8529  -11.6356 H       1  UNL1        0.0267
     43 H          -3.9410   -2.2810  -10.2569 H       1  UNL1        0.0267
     44 H          -5.1328    0.4965  -12.1534 H       1  UNL1        0.2114
@<TRIPOS>BOND
     1     1     2    1
     2     2     3    1
     3     3     4    1
     4     4     5   ar
     5     5     6   ar
     6     6     7   ar
     7     7     8   ar
     8     8     9   ar
     9     9    10   ar
    10    10    11   ar
    11     6    11   ar
    12    11    12   ar
    13     4    12   ar
    14    12    13    1
    15    13    14   ar
    16    14    15   ar
    17    15    16   ar
    18    16    17   ar
    19    17    18   ar
    20    13    18   ar
    21    17    19    1
    22     9    20    1
    23    20    21    3
    24    21    22    1
    25    22    23    1
    26    22    24    1
    27    22    25    1
    28     1    26    1
    29     1    27    1
    30     1    28    1
    31     2    29    1
    32     2    30    1
    33     3    31    1
    34     7    32    1
    35     8    33    1
    36    10    34    1
    37    15    35    1
    38    19    36    1
    39    19    37    1
    40    23    38    1
    41    23    39    1
    42    23    40    1
    43    24    41    1
    44    24    42    1
    45    24    43    1
    46    25    44    1
@<TRIPOS>MOLECULE
3947_5htz_non-chg
 43 45 0 0 0
SMALL
GASTEIGER

@<TRIPOS>ATOM
      1 C          -5.2213    6.2185    6.1032 C.ar    1  UNL1        0.0080
      2 C          -4.9984    5.6724    4.7524 C.ar    1  UNL1        0.0226
      3 C          -5.2564    4.4042    4.2649 C.ar    1  UNL1       -0.0281
      4 C          -4.8898    4.2377    2.8932 C.ar    1  UNL1        0.0552
      5 C          -4.3266    5.3777    2.3462 C.ar    1  UNL1        0.0477
      6 C          -3.6230    5.6010    0.9789 C.3     1  UNL1        0.1318
      7 C          -2.4093    4.6357    0.9378 C.3     1  UNL1       -0.0237
      8 C          -4.6070    5.3748   -0.1654 C.3     1  UNL1        0.1361
      9 S          -3.8448    5.7399   -1.7263 S.O2    1  UNL1        0.0904
     10 O          -2.7991    4.7756   -1.9710 O.2     1  UNL1       -0.1422
     11 O          -4.9196    5.9066   -2.6854 O.2     1  UNL1       -0.1422
     12 N          -3.1294    7.2335   -1.4290 N.pl3   1  UNL1       -0.0933
     13 C          -2.5397    7.5151   -0.2003 C.cat   1  UNL1        0.3869
     14 N          -1.5596    8.3335   -0.0835 N.2     1  UNL1       -0.1318
     15 N          -3.1032    6.9593    0.8836 N.pl3   1  UNL1       -0.2256
     16 C          -3.4332    8.3167   -2.3896 C.3     1  UNL1        0.0749
     17 S          -4.3788    6.6626    3.5028 S.2     1  UNL1       -0.0881
     18 CL         -5.0883    2.7235    2.1177 Cl      1  UNL1       -0.0826
     19 C          -4.4177    7.2255    6.6683 C.ar    1  UNL1       -0.0352
     20 C          -4.6920    7.7163    7.9514 C.ar    1  UNL1        0.0436
     21 C          -3.9038    8.7562    8.5362 C.1     1  UNL1       -0.0650
     22 C          -3.2653    9.6366    9.0474 C.1     1  UNL1       -0.1003
     23 C          -2.5011   10.7123    9.6851 C.3     1  UNL1       -0.0022
     24 C          -5.7642    7.1694    8.6408 C.ar    1  UNL1        0.0430
     25 N          -6.5565    6.1887    8.1488 N.ar    1  UNL1       -0.2614
     26 C          -6.2653    5.7446    6.9014 C.ar    1  UNL1        0.0358
     27 H          -5.6633    3.6048    4.8741 H       1  UNL1        0.0644
     28 H          -2.6836    3.6616    0.5192 H       1  UNL1        0.0268
     29 H          -1.5791    5.0308    0.3418 H       1  UNL1        0.0268
     30 H          -2.0028    4.4552    1.9403 H       1  UNL1        0.0268
     31 H          -4.9581    4.3415   -0.2350 H       1  UNL1        0.0571
     32 H          -5.4864    6.0246   -0.0857 H       1  UNL1        0.0571
     33 H          -1.2503    8.6052   -1.0186 H       1  UNL1        0.3059
     34 H          -2.6239    7.2647    1.7260 H       1  UNL1        0.2454
     35 H          -4.1115    9.0321   -1.9118 H       1  UNL1        0.0619
     36 H          -2.5179    8.8405   -2.6796 H       1  UNL1        0.0619
     37 H          -3.8979    7.9660   -3.3128 H       1  UNL1        0.0619
     38 H          -3.5721    7.6344    6.1226 H       1  UNL1        0.0637
     39 H          -1.5166   10.8222    9.2196 H       1  UNL1        0.0362
     40 H          -3.0291   11.6657    9.5947 H       1  UNL1        0.0362
     41 H          -2.3546   10.5054   10.7482 H       1  UNL1        0.0362
     42 H          -6.0276    7.5148    9.6371 H       1  UNL1        0.0842
     43 H          -6.9379    4.9676    6.5466 H       1  UNL1        0.0836
@<TRIPOS>BOND
     1     1     2    1
     2     2     3   ar
     3     3     4   ar
     4     4     5   ar
     5     6     8    1
     6     8     9    1
     7     9    10    2
     8     9    11    2
     9     9    12    1
    10    12    13    1
    11    13    14    2
    12    13    15    1
    13     6    15    1
    14    12    16    1
    15     5    17   ar
    16     2    17   ar
    17     4    18    1
    18     1    19   ar
    19    19    20   ar
    20    20    21    1
    21    21    22    3
    22    22    23    1
    23    20    24   ar
    24    24    25   ar
    25    25    26   ar
    26     1    26   ar
    27     3    27    1
    28     7    28    1
    29     7    29    1
    30     7    30    1
    31     8    31    1
    32     8    32    1
    33    14    33    1
    34    15    34    1
    35    16    35    1
    36    16    36    1
    37    16    37    1
    38    19    38    1
    39    23    39    1
    40    23    40    1
    41    23    41    1
    42    24    42    1
    43    26    43    1
    44     6     7    1
    45     6     5    1
@<TRIPOS>MOLECULE
4784_1hvh_pH7
 83 87 0 0 0
SMALL
GASTEIGER

@<TRIPOS>ATOM
      1 N           0.8862    0.0964    0.6687 N.2     1  UNL1       -0.1836
      2 C           0.2426   -1.0930    0.5782 C.cat   1  UNL1        0.3488
      3 N          -1.1294   -1.1696    0.2800 N.pl3   1  UNL1       -0.2169
      4 C          -1.5136   -2.0614   -0.8538 C.3     1  UNL1        0.1041
      5 C          -1.7497   -3.5406   -0.4479 C.3     1  UNL1        0.1160
      6 O          -1.7298   -4.3467   -1.6358 O.3     1  UNL1       -0.3859
      7 C          -0.6383   -4.0892    0.4748 C.3     1  UNL1        0.1160
      8 O          -0.7411   -5.5033    0.5569 O.3     1  UNL1       -0.3859
      9 C           0.7558   -3.5752    0.0366 C.3     1  UNL1        0.1041
     10 N           1.0415   -2.2559    0.7503 N.pl3   1  UNL1       -0.2169
     11 C           1.9195   -2.2835    1.9573 C.3     1  UNL1        0.0861
     12 C           3.3435   -1.8991    1.6632 C.ar    1  UNL1       -0.0158
     13 C           3.8148   -1.6770    0.3644 C.ar    1  UNL1       -0.0554
     14 C           5.1325   -1.2853    0.1349 C.ar    1  UNL1       -0.0560
     15 C           6.0176   -1.0951    1.2004 C.ar    1  UNL1       -0.0222
     16 C           5.5729   -1.3740    2.4986 C.ar    1  UNL1       -0.0560
     17 C           4.2503   -1.7687    2.7290 C.ar    1  UNL1       -0.0554
     18 C           7.4344   -0.6676    0.9117 C.3     1  UNL1        0.0692
     19 O           7.9581    0.1287    1.9626 O.3     1  UNL1       -0.3904
     20 C           1.9351   -4.5980    0.0494 C.3     1  UNL1        0.0069
     21 C           1.7994   -5.7077   -0.9751 C.ar    1  UNL1       -0.0442
     22 C           1.6742   -5.4187   -2.3435 C.ar    1  UNL1       -0.0585
     23 C           1.4528   -6.4391   -3.2691 C.ar    1  UNL1       -0.0615
     24 C           1.3877   -7.7627   -2.8435 C.ar    1  UNL1       -0.0617
     25 C           1.5678   -8.0682   -1.4965 C.ar    1  UNL1       -0.0615
     26 C           1.7803   -7.0478   -0.5671 C.ar    1  UNL1       -0.0585
     27 C          -2.6244   -1.5219   -1.7754 C.3     1  UNL1        0.0069
     28 C          -2.3694   -0.1816   -2.4335 C.ar    1  UNL1       -0.0442
     29 C          -1.0988    0.2529   -2.8427 C.ar    1  UNL1       -0.0585
     30 C          -0.9466    1.4734   -3.4945 C.ar    1  UNL1       -0.0615
     31 C          -2.0444    2.2659   -3.7926 C.ar    1  UNL1       -0.0617
     32 C          -3.3179    1.8351   -3.4187 C.ar    1  UNL1       -0.0615
     33 C          -3.4742    0.6200   -2.7527 C.ar    1  UNL1       -0.0585
     34 C          -2.1059   -0.8671    1.4031 C.3     1  UNL1        0.0861
     35 C          -3.0203    0.3216    1.1764 C.ar    1  UNL1       -0.0158
     36 C          -4.3088    0.1692    0.6418 C.ar    1  UNL1       -0.0554
     37 C          -5.0710    1.2796    0.2419 C.ar    1  UNL1       -0.0560
     38 C          -4.5755    2.5746    0.4049 C.ar    1  UNL1       -0.0222
     39 C          -3.4010    2.7357    1.1440 C.ar    1  UNL1       -0.0560
     40 C          -2.6412    1.6210    1.5347 C.ar    1  UNL1       -0.0554
     41 C          -5.2086    3.7544   -0.2912 C.3     1  UNL1        0.0692
     42 O          -5.7016    4.7180    0.6219 O.3     1  UNL1       -0.3904
     43 C           0.3267    1.3084    0.2097 C.1     1  UNL1        0.2548
     44 N          -0.0157    2.3442   -0.1451 N.1     1  UNL1       -0.1539
     45 H           1.8945    0.1084    0.7073 H       1  UNL1        0.2776
     46 H          -0.6503   -2.0613   -1.5242 H       1  UNL1        0.0701
     47 H          -2.7220   -3.6800    0.0368 H       1  UNL1        0.0653
     48 H          -2.6469   -4.6076   -1.8504 H       1  UNL1        0.2100
     49 H          -0.8243   -3.7265    1.4917 H       1  UNL1        0.0653
     50 H          -0.7900   -5.8436   -0.3633 H       1  UNL1        0.2100
     51 H           0.7286   -3.2812   -1.0142 H       1  UNL1        0.0701
     52 H           1.5014   -1.5814    2.6908 H       1  UNL1        0.0685
     53 H           1.8647   -3.2750    2.4202 H       1  UNL1        0.0685
     54 H           3.1796   -1.8271   -0.5040 H       1  UNL1        0.0621
     55 H           5.4721   -1.1390   -0.8882 H       1  UNL1        0.0621
     56 H           6.2621   -1.2872    3.3395 H       1  UNL1        0.0621
     57 H           3.9464   -1.9776    3.7553 H       1  UNL1        0.0621
     58 H           8.0730   -1.5441    0.7726 H       1  UNL1        0.0607
     59 H           7.4673   -0.0641   -0.0037 H       1  UNL1        0.0607
     60 H           7.3483    0.8742    2.0911 H       1  UNL1        0.2098
     61 H           2.8658   -4.0855   -0.2159 H       1  UNL1        0.0346
     62 H           2.0960   -5.0085    1.0510 H       1  UNL1        0.0346
     63 H           1.7378   -4.3987   -2.7120 H       1  UNL1        0.0620
     64 H           1.3291   -6.2029   -4.3233 H       1  UNL1        0.0618
     65 H           1.2078   -8.5576   -3.5632 H       1  UNL1        0.0618
     66 H           1.5352   -9.1047   -1.1683 H       1  UNL1        0.0618
     67 H           1.9067   -7.3124    0.4812 H       1  UNL1        0.0620
     68 H          -2.7828   -2.2320   -2.5978 H       1  UNL1        0.0346
     69 H          -3.5644   -1.5053   -1.2238 H       1  UNL1        0.0346
     70 H          -0.2075   -0.3444   -2.6862 H       1  UNL1        0.0620
     71 H           0.0475    1.8057   -3.8135 H       1  UNL1        0.0618
     72 H          -1.9268    3.2041   -4.3254 H       1  UNL1        0.0618
     73 H          -4.1871    2.4399   -3.6635 H       1  UNL1        0.0618
     74 H          -4.4790    0.3015   -2.4942 H       1  UNL1        0.0620
     75 H          -2.7054   -1.7666    1.5815 H       1  UNL1        0.0685
     76 H          -1.5260   -0.7048    2.3210 H       1  UNL1        0.0685
     77 H          -4.7336   -0.8189    0.4771 H       1  UNL1        0.0621
     78 H          -6.0235    1.1202   -0.2623 H       1  UNL1        0.0621
     79 H          -3.0394    3.7398    1.3647 H       1  UNL1        0.0621
     80 H          -1.7293    1.8100    2.0939 H       1  UNL1        0.0621
     81 H          -4.4613    4.2357   -0.9332 H       1  UNL1        0.0607
     82 H          -6.0297    3.4388   -0.9446 H       1  UNL1        0.0607
     83 H          -6.2152    4.2462    1.2970 H       1  UNL1        0.2098
@<TRIPOS>UNITY_ATOM_ATTR
1 1
charge 1
@<TRIPOS>BOND
     1     1     2    2
     2     2     3    1
     3     3     4    1
     4     4     5    1
     5     5     7    1
     6     7     9    1
     7     9    10    1
     8     2    10    1
     9    10    11    1
    10    11    12    1
    11    12    13   ar
    12    13    14   ar
    13    14    15   ar
    14    15    16   ar
    15    16    17   ar
    16    12    17   ar
    17    15    18    1
    18    18    19    1
    19     9    20    1
    20    20    21    1
    21    21    22   ar
    22    22    23   ar
    23    23    24   ar
    24    24    25   ar
    25    25    26   ar
    26    21    26   ar
    27     4    27    1
    28    27    28    1
    29    28    29   ar
    30    29    30   ar
    31    30    31   ar
    32    31    32   ar
    33    32    33   ar
    34    28    33   ar
    35     3    34    1
    36    34    35    1
    37    35    36   ar
    38    36    37   ar
    39    37    38   ar
    40    38    39   ar
    41    39    40   ar
    42    35    40   ar
    43    38    41    1
    44    41    42    1
    45     1    43    1
    46    43    44    3
    47     1    45    1
    48     4    46    1
    49     6    48    1
    50     8    50    1
    51     9    51    1
    52    11    52    1
    53    11    53    1
    54    13    54    1
    55    14    55    1
    56    16    56    1
    57    17    57    1
    58    18    58    1
    59    18    59    1
    60    19    60    1
    61    20    61    1
    62    20    62    1
    63    22    63    1
    64    23    64    1
    65    24    65    1
    66    25    66    1
    67    26    67    1
    68    27    68    1
    69    27    69    1
    70    29    70    1
    71    30    71    1
    72    31    72    1
    73    32    73    1
    74    33    74    1
    75    34    75    1
    76    34    76    1
    77    36    77    1
    78    37    78    1
    79    39    79    1
    80    40    80    1
    81    41    81    1
    82    41    82    1
    83    42    83    1
    84     5    47    1
    85     5     6    1
    86     7    49    1
    87     7     8    1
@<TRIPOS>MOLECULE
4841_1m48_pH7
 64 66 0 0 0
SMALL
GASTEIGER

@<TRIPOS>ATOM
      1 N          -6.2130   -3.6226   -3.5360 N.pl3   1  UNL1       -0.2544
      2 C          -4.9130   -3.2746   -3.6204 C.cat   1  UNL1        0.3268
      3 N          -4.5507   -2.2021   -2.8985 N.2     1  UNL1       -0.2952
      4 N          -4.0234   -3.9667   -4.3958 N.pl3   1  UNL1       -0.2276
      5 C          -2.5633   -3.6768   -4.4114 C.3     1  UNL1        0.0637
      6 C          -2.0428   -3.4146   -5.8370 C.3     1  UNL1       -0.0037
      7 C          -2.4612   -4.5874   -6.7511 C.3     1  UNL1       -0.0444
      8 C          -3.9504   -4.9285   -6.6625 C.3     1  UNL1       -0.0235
      9 C          -4.3840   -5.1483   -5.2188 C.3     1  UNL1        0.0604
     10 C          -2.4617   -2.0444   -6.4267 C.3     1  UNL1        0.0295
     11 C          -1.9202   -0.8548   -5.6385 C.2     1  UNL1        0.2140
     12 O          -1.3508   -0.9883   -4.5595 O.2     1  UNL1       -0.2758
     13 N          -2.1807    0.3780   -6.1906 N.am    1  UNL1       -0.3021
     14 C          -1.6736    1.6241   -5.5764 C.3     1  UNL1        0.1243
     15 C          -0.9001    2.4700   -6.5932 C.2     1  UNL1        0.3277
     16 O          -0.9777    2.3367   -7.8078 O.2     1  UNL1       -0.2487
     17 O          -0.1695    3.4185   -5.9389 O.3     1  UNL1       -0.4666
     18 C           0.5182    4.3555   -6.7716 C.3     1  UNL1        0.0817
     19 C          -2.8101    2.4932   -5.0089 C.3     1  UNL1        0.0012
     20 C          -3.5144    1.8985   -3.8111 C.ar    1  UNL1       -0.0450
     21 C          -2.7953    1.5719   -2.6519 C.ar    1  UNL1       -0.0573
     22 C          -3.4480    1.0551   -1.5319 C.ar    1  UNL1       -0.0461
     23 C          -4.8306    0.8798   -1.5535 C.ar    1  UNL1        0.0253
     24 C          -5.5603    1.2227   -2.6931 C.ar    1  UNL1       -0.0461
     25 C          -4.9048    1.7305   -3.8168 C.ar    1  UNL1       -0.0573
     26 C          -5.4959    0.3343   -0.4164 C.1     1  UNL1       -0.0610
     27 C          -6.0716   -0.1220    0.5383 C.1     1  UNL1       -0.0610
     28 C          -6.7924   -0.6292    1.6608 C.ar    1  UNL1        0.0253
     29 C          -8.1754   -0.7970    1.5701 C.ar    1  UNL1       -0.0463
     30 C          -8.8970   -1.2606    2.6705 C.ar    1  UNL1       -0.0606
     31 C          -8.2359   -1.5568    3.8614 C.ar    1  UNL1       -0.0617
     32 C          -6.8527   -1.3961    3.9533 C.ar    1  UNL1       -0.0606
     33 C          -6.1288   -0.9328    2.8517 C.ar    1  UNL1       -0.0463
     34 H          -6.8560   -3.0942   -2.9617 H       1  UNL1        0.2411
     35 H          -6.6000   -4.4188   -4.0189 H       1  UNL1        0.2411
     36 H          -3.6313   -1.7791   -2.9543 H       1  UNL1        0.2542
     37 H          -5.2013   -1.7333   -2.2834 H       1  UNL1        0.2542
     38 H          -2.0665   -4.5689   -4.0078 H       1  UNL1        0.0637
     39 H          -2.3118   -2.8817   -3.7156 H       1  UNL1        0.0637
     40 H          -0.9453   -3.4182   -5.7871 H       1  UNL1        0.0334
     41 H          -2.1916   -4.3809   -7.7929 H       1  UNL1        0.0270
     42 H          -1.8899   -5.4779   -6.4550 H       1  UNL1        0.0270
     43 H          -4.5409   -4.1151   -7.0985 H       1  UNL1        0.0294
     44 H          -4.1592   -5.8311   -7.2482 H       1  UNL1        0.0294
     45 H          -5.4545   -5.3536   -5.1898 H       1  UNL1        0.0634
     46 H          -3.8763   -6.0203   -4.7883 H       1  UNL1        0.0634
     47 H          -2.0668   -1.9651   -7.4482 H       1  UNL1        0.0362
     48 H          -3.5520   -1.9571   -6.4786 H       1  UNL1        0.0362
     49 H          -2.5215    0.4460   -7.1450 H       1  UNL1        0.1495
     50 H          -0.9549    1.3511   -4.7960 H       1  UNL1        0.0618
     51 H           1.3639    3.8698   -7.2654 H       1  UNL1        0.0661
     52 H          -0.1608    4.8036   -7.5033 H       1  UNL1        0.0661
     53 H           0.9013    5.1539   -6.1282 H       1  UNL1        0.0661
     54 H          -2.4254    3.4746   -4.6990 H       1  UNL1        0.0337
     55 H          -3.5374    2.7027   -5.8053 H       1  UNL1        0.0337
     56 H          -1.7194    1.7314   -2.6022 H       1  UNL1        0.0621
     57 H          -2.8699    0.8143   -0.6427 H       1  UNL1        0.0630
     58 H          -6.6432    1.1220   -2.7084 H       1  UNL1        0.0630
     59 H          -5.4917    2.0190   -4.6877 H       1  UNL1        0.0621
     60 H          -8.7039   -0.5513    0.6524 H       1  UNL1        0.0630
     61 H          -9.9758   -1.3769    2.6051 H       1  UNL1        0.0618
     62 H          -8.8005   -1.9039    4.7244 H       1  UNL1        0.0618
     63 H          -6.3427   -1.6183    4.8865 H       1  UNL1        0.0618
     64 H          -5.0532   -0.7981    2.9406 H       1  UNL1        0.0630
@<TRIPOS>UNITY_ATOM_ATTR
3 1
charge 1
@<TRIPOS>BOND
     1     1     2    1
     2     2     3    2
     3     2     4    1
     4     4     5    1
     5     5     6    1
     6     6     7    1
     7     7     8    1
     8     8     9    1
     9     4     9    1
    10    10    11    1
    11    11    12    2
    12    11    13   am
    13    13    14    1
    14    14    15    1
    15    15    16    2
    16    15    17    1
    17    17    18    1
    18    14    19    1
    19    19    20    1
    20    20    21   ar
    21    21    22   ar
    22    22    23   ar
    23    23    24   ar
    24    24    25   ar
    25    20    25   ar
    26    23    26    1
    27    26    27    3
    28    27    28    1
    29    28    29   ar
    30    29    30   ar
    31    30    31   ar
    32    31    32   ar
    33    32    33   ar
    34    28    33   ar
    35     1    34    1
    36     1    35    1
    37     3    36    1
    38     3    37    1
    39     5    38    1
    40     5    39    1
    41     7    41    1
    42     7    42    1
    43     8    43    1
    44     8    44    1
    45     9    45    1
    46     9    46    1
    47    10    47    1
    48    10    48    1
    49    13    49    1
    50    14    50    1
    51    18    51    1
    52    18    52    1
    53    18    53    1
    54    19    54    1
    55    19    55    1
    56    21    56    1
    57    22    57    1
    58    24    58    1
    59    25    59    1
    60    29    60    1
    61    30    61    1
    62    31    62    1
    63    32    63    1
    64    33    64    1
    65     6    40    1
    66     6    10    1
@<TRIPOS>MOLECULE
4842_1m48_non-chg
 63 65 0 0 0
SMALL
GASTEIGER

@<TRIPOS>ATOM
      1 N          -3.1452    2.2248    1.3277 N.pl3   1  UNL1       -0.2518
      2 C          -3.1356    3.3065    0.5237 C.cat   1  UNL1        0.3620
      3 N          -4.0966    4.1612    0.5329 N.2     1  UNL1       -0.1335
      4 N          -2.0716    3.3557   -0.3257 N.pl3   1  UNL1       -0.2250
      5 C          -0.6945    3.3817    0.1726 C.3     1  UNL1        0.0638
      6 C          -0.0759    4.7884    0.0679 C.3     1  UNL1       -0.0037
      7 C          -0.2199    5.2970   -1.3798 C.3     1  UNL1       -0.0444
      8 C          -1.6654    5.2345   -1.8735 C.3     1  UNL1       -0.0235
      9 C          -2.2422    3.8342   -1.6988 C.3     1  UNL1        0.0605
     10 C          -0.6421    5.7963    1.0929 C.3     1  UNL1        0.0295
     11 C          -0.3784    5.4088    2.5449 C.2     1  UNL1        0.2140
     12 O           0.2820    4.4321    2.8818 O.2     1  UNL1       -0.2758
     13 N          -0.9395    6.2733    3.4575 N.am    1  UNL1       -0.3021
     14 C          -0.8400    6.0518    4.9109 C.3     1  UNL1        0.1243
     15 C           0.4307    6.6372    5.5589 C.2     1  UNL1        0.3277
     16 O           0.6486    6.6200    6.7685 O.2     1  UNL1       -0.2487
     17 O           1.2882    7.1634    4.6379 O.3     1  UNL1       -0.4666
     18 C           2.5426    7.6037    5.1644 C.3     1  UNL1        0.0817
     19 C          -2.0731    6.6153    5.6443 C.3     1  UNL1        0.0012
     20 C          -3.3651    5.9572    5.2116 C.ar    1  UNL1       -0.0450
     21 C          -3.8180    4.7928    5.8488 C.ar    1  UNL1       -0.0573
     22 C          -4.9907    4.1634    5.4253 C.ar    1  UNL1       -0.0461
     23 C          -5.7155    4.6867    4.3511 C.ar    1  UNL1        0.0253
     24 C          -5.2727    5.8416    3.7123 C.ar    1  UNL1       -0.0461
     25 C          -4.1086    6.4783    4.1427 C.ar    1  UNL1       -0.0573
     26 C          -6.9127    4.0460    3.9112 C.1     1  UNL1       -0.0610
     27 C          -7.9358    3.5369    3.5302 C.1     1  UNL1       -0.0610
     28 C          -9.1649    2.9708    3.0712 C.ar    1  UNL1        0.0253
     29 C          -9.8224    3.5299    1.9721 C.ar    1  UNL1       -0.0463
     30 C         -11.0341    2.9916    1.5355 C.ar    1  UNL1       -0.0606
     31 C         -11.5882    1.8949    2.1952 C.ar    1  UNL1       -0.0617
     32 C         -10.9312    1.3333    3.2896 C.ar    1  UNL1       -0.0606
     33 C          -9.7186    1.8710    3.7273 C.ar    1  UNL1       -0.0463
     34 H          -3.7270    2.2506    2.1514 H       1  UNL1        0.2412
     35 H          -2.2637    1.7506    1.4565 H       1  UNL1        0.2412
     36 H          -4.7789    3.8593    1.2320 H       1  UNL1        0.3058
     37 H          -0.1004    2.6820   -0.4281 H       1  UNL1        0.0637
     38 H          -0.6373    3.0092    1.1977 H       1  UNL1        0.0637
     39 H           0.9981    4.6889    0.2746 H       1  UNL1        0.0334
     40 H           0.1673    6.3172   -1.4775 H       1  UNL1        0.0270
     41 H           0.3976    4.6663   -2.0344 H       1  UNL1        0.0270
     42 H          -2.2783    5.9632   -1.3321 H       1  UNL1        0.0294
     43 H          -1.7029    5.5139   -2.9335 H       1  UNL1        0.0294
     44 H          -3.2959    3.8193   -2.0034 H       1  UNL1        0.0634
     45 H          -1.7238    3.1403   -2.3732 H       1  UNL1        0.0634
     46 H          -0.1584    6.7695    0.9332 H       1  UNL1        0.0362
     47 H          -1.7191    5.9421    0.9589 H       1  UNL1        0.0362
     48 H          -1.4011    7.1076    3.1221 H       1  UNL1        0.1495
     49 H          -0.7760    4.9681    5.0723 H       1  UNL1        0.0618
     50 H           2.4064    8.5062    5.7676 H       1  UNL1        0.0661
     51 H           3.0262    6.8149    5.7503 H       1  UNL1        0.0661
     52 H           3.1929    7.8456    4.3188 H       1  UNL1        0.0661
     53 H          -1.9669    6.4899    6.7304 H       1  UNL1        0.0337
     54 H          -2.1487    7.6994    5.4851 H       1  UNL1        0.0337
     55 H          -3.2624    4.3684    6.6827 H       1  UNL1        0.0621
     56 H          -5.3354    3.2683    5.9363 H       1  UNL1        0.0630
     57 H          -5.8291    6.2548    2.8707 H       1  UNL1        0.0630
     58 H          -3.7850    7.3791    3.6272 H       1  UNL1        0.0621
     59 H          -9.3988    4.3871    1.4535 H       1  UNL1        0.0630
     60 H         -11.5465    3.4296    0.6819 H       1  UNL1        0.0618
     61 H         -12.5332    1.4777    1.8558 H       1  UNL1        0.0618
     62 H         -11.3631    0.4788    3.8037 H       1  UNL1        0.0618
     63 H          -9.2144    1.4298    4.5837 H       1  UNL1        0.0630
@<TRIPOS>BOND
     1     1     2    1
     2     2     3    2
     3     2     4    1
     4     4     5    1
     5     5     6    1
     6     6     7    1
     7     7     8    1
     8     8     9    1
     9     4     9    1
    10    10    11    1
    11    11    12    2
    12    11    13   am
    13    13    14    1
    14    14    15    1
    15    15    16    2
    16    15    17    1
    17    17    18    1
    18    14    19    1
    19    19    20    1
    20    20    21   ar
    21    21    22   ar
    22    22    23   ar
    23    23    24   ar
    24    24    25   ar
    25    20    25   ar
    26    23    26    1
    27    26    27    3
    28    27    28    1
    29    28    29   ar
    30    29    30   ar
    31    30    31   ar
    32    31    32   ar
    33    32    33   ar
    34    28    33   ar
    35     1    34    1
    36     1    35    1
    37     3    36    1
    38     5    37    1
    39     5    38    1
    40     7    40    1
    41     7    41    1
    42     8    42    1
    43     8    43    1
    44     9    44    1
    45     9    45    1
    46    10    46    1
    47    10    47    1
    48    13    48    1
    49    14    49    1
    50    18    50    1
    51    18    51    1
    52    18    52    1
    53    19    53    1
    54    19    54    1
    55    21    55    1
    56    22    56    1
    57    24    57    1
    58    25    58    1
    59    29    59    1
    60    30    60    1
    61    31    61    1
    62    32    62    1
    63    33    63    1
    64     6    39    1
    65     6    10    1
@<TRIPOS>MOLECULE
5056_2cgr_non-chg
 49 51 0 0 0
SMALL
GASTEIGER

@<TRIPOS>ATOM
      1 C           1.1406   -0.1972   -0.2125 C.cat   1  UNL1        0.3878
      2 N           0.2276   -0.0671    0.7115 N.pl3   1  UNL1       -0.0731
      3 C           0.4535   -0.1233    2.0955 C.ar    1  UNL1        0.1420
      4 C           1.5016    0.5040    2.7766 C.ar    1  UNL1       -0.0184
      5 C           1.6974    0.2873    4.1488 C.ar    1  UNL1       -0.0410
      6 C           0.7959   -0.4936    4.8761 C.ar    1  UNL1        0.0520
      7 C           1.0096   -0.7420    6.2751 C.1     1  UNL1        0.0992
      8 N           1.1886   -0.9510    7.4006 N.1     1  UNL1       -0.1909
      9 C          -0.3164   -1.0351    4.2297 C.ar    1  UNL1       -0.0410
     10 C          -0.4760   -0.8498    2.8514 C.ar    1  UNL1       -0.0184
     11 N           0.6346   -0.3133   -1.4716 N.pl3   1  UNL1       -0.2650
     12 C           1.1516    0.2550   -2.7091 C.3     1  UNL1        0.1613
     13 C           0.6669    1.6644   -2.9674 C.2     1  UNL1        0.3389
     14 O           1.2716    2.5285   -3.5841 O.2     1  UNL1       -0.2474
     15 O          -0.6007    1.8855   -2.5597 O.3     1  UNL1       -0.4784
     16 N           2.4817   -0.3050   -0.0169 N.pl3   1  UNL1       -0.2647
     17 C           3.4817   -0.9606   -0.8416 C.3     1  UNL1        0.1262
     18 C           4.4476    0.0840   -1.4091 C.ar    1  UNL1       -0.0065
     19 C           4.7871    1.2598   -0.7130 C.ar    1  UNL1       -0.0550
     20 C           5.6282    2.2160   -1.2895 C.ar    1  UNL1       -0.0614
     21 C           6.1468    2.0119   -2.5650 C.ar    1  UNL1       -0.0617
     22 C           5.8413    0.8451   -3.2610 C.ar    1  UNL1       -0.0614
     23 C           5.0077   -0.1168   -2.6847 C.ar    1  UNL1       -0.0550
     24 C           4.1238   -2.0882   -0.0338 C.ar    1  UNL1       -0.0065
     25 C           3.2984   -3.1437    0.4040 C.ar    1  UNL1       -0.0550
     26 C           3.8247   -4.2264    1.1068 C.ar    1  UNL1       -0.0614
     27 C           5.1870   -4.2742    1.3858 C.ar    1  UNL1       -0.0617
     28 C           6.0175   -3.2329    0.9771 C.ar    1  UNL1       -0.0614
     29 C           5.4910   -2.1441    0.2767 C.ar    1  UNL1       -0.0550
     30 H           2.1881    1.1565    2.2451 H       1  UNL1        0.0653
     31 H           2.5613    0.7318    4.6403 H       1  UNL1        0.0631
     32 H          -1.0557   -1.6127    4.7795 H       1  UNL1        0.0631
     33 H          -1.3373   -1.2863    2.3495 H       1  UNL1        0.0653
     34 H          -0.3732   -0.1608   -1.4161 H       1  UNL1        0.2585
     35 H           2.2350    0.2682   -2.7540 H       1  UNL1        0.0773
     36 H           0.8001   -0.3653   -3.5416 H       1  UNL1        0.0773
     37 H          -0.7652    2.8156   -2.8217 H       1  UNL1        0.2952
     38 H           2.7384   -0.3869    0.9556 H       1  UNL1        0.2588
     39 H           3.0004   -1.4614   -1.6908 H       1  UNL1        0.0795
     40 H           4.3818    1.4533    0.2769 H       1  UNL1        0.0621
     41 H           5.8649    3.1289   -0.7480 H       1  UNL1        0.0618
     42 H           6.7843    2.7658   -3.0206 H       1  UNL1        0.0618
     43 H           6.2431    0.6880   -4.2586 H       1  UNL1        0.0618
     44 H           4.7765   -1.0165   -3.2491 H       1  UNL1        0.0621
     45 H           2.2292   -3.1221    0.1911 H       1  UNL1        0.0621
     46 H           3.1717   -5.0330    1.4289 H       1  UNL1        0.0618
     47 H           5.6023   -5.1237    1.9209 H       1  UNL1        0.0618
     48 H           7.0815   -3.2705    1.1969 H       1  UNL1        0.0618
     49 H           6.1726   -1.3534   -0.0288 H       1  UNL1        0.0621
@<TRIPOS>BOND
     1     1     2    2
     2     2     3    1
     3     3     4   ar
     4     4     5   ar
     5     5     6   ar
     6     6     7    1
     7     7     8    3
     8     6     9   ar
     9     9    10   ar
    10     3    10   ar
    11     1    11    1
    12    11    12    1
    13    12    13    1
    14    13    14    2
    15    13    15    1
    16     1    16    1
    17    16    17    1
    18    17    18    1
    19    18    19   ar
    20    19    20   ar
    21    20    21   ar
    22    21    22   ar
    23    22    23   ar
    24    18    23   ar
    25    17    24    1
    26    24    25   ar
    27    25    26   ar
    28    26    27   ar
    29    27    28   ar
    30    28    29   ar
    31    24    29   ar
    32     4    30    1
    33     5    31    1
    34     9    32    1
    35    10    33    1
    36    11    34    1
    37    12    35    1
    38    12    36    1
    39    15    37    1
    40    16    38    1
    41    17    39    1
    42    19    40    1
    43    20    41    1
    44    21    42    1
    45    22    43    1
    46    23    44    1
    47    25    45    1
    48    26    46    1
    49    27    47    1
    50    28    48    1
    51    29    49    1
@<TRIPOS>MOLECULE
5057_2cgr_orig
 48 50 0 0 0
SMALL
GASTEIGER

@<TRIPOS>ATOM
      1 C           1.0319    0.2757   -0.0882 C.cat   1  UNL1        0.3876
      2 N           0.2247    1.2933   -0.1072 N.pl3   1  UNL1       -0.0731
      3 C           0.5891    2.6323    0.0392 C.ar    1  UNL1        0.1420
      4 C          -0.0196    3.5751   -0.7946 C.ar    1  UNL1       -0.0184
      5 C           0.4143    4.9044   -0.8180 C.ar    1  UNL1       -0.0410
      6 C           1.4762    5.2996   -0.0044 C.ar    1  UNL1        0.0520
      7 C           2.0563    6.6068   -0.1430 C.1     1  UNL1        0.0992
      8 N           2.5515    7.6435   -0.2729 N.1     1  UNL1       -0.1909
      9 C           1.9964    4.3977    0.9259 C.ar    1  UNL1       -0.0410
     10 C           1.5058    3.0893    0.9840 C.ar    1  UNL1       -0.0184
     11 N           0.5081   -0.9817   -0.1963 N.pl3   1  UNL1       -0.2703
     12 C          -0.7079   -1.2955   -0.9659 C.3     1  UNL1        0.1041
     13 C          -0.5966   -2.7374   -1.5429 C.2     1  UNL1        0.0752
     14 O           0.3212   -3.4495   -1.0216 O.co2   1  UNL1       -0.5466
     15 O          -1.3951   -3.0188   -2.4813 O.co2   1  UNL1       -0.5466
     16 N           2.3914    0.1587    0.0626 N.pl3   1  UNL1       -0.2647
     17 C           3.4316    1.0684   -0.3923 C.3     1  UNL1        0.1262
     18 C           4.3382    1.4641    0.7860 C.ar    1  UNL1       -0.0065
     19 C           4.5373    0.6300    1.9006 C.ar    1  UNL1       -0.0550
     20 C           5.3061    1.0556    2.9874 C.ar    1  UNL1       -0.0614
     21 C           5.8954    2.3178    2.9762 C.ar    1  UNL1       -0.0617
     22 C           5.7420    3.1435    1.8676 C.ar    1  UNL1       -0.0614
     23 C           4.9842    2.7159    0.7745 C.ar    1  UNL1       -0.0550
     24 C           4.1727    0.5005   -1.6039 C.ar    1  UNL1       -0.0065
     25 C           3.4652    0.3419   -2.8103 C.ar    1  UNL1       -0.0550
     26 C           4.1118   -0.0798   -3.9736 C.ar    1  UNL1       -0.0614
     27 C           5.4769   -0.3528   -3.9529 C.ar    1  UNL1       -0.0617
     28 C           6.1931   -0.2140   -2.7674 C.ar    1  UNL1       -0.0614
     29 C           5.5467    0.2036   -1.6014 C.ar    1  UNL1       -0.0550
     30 H          -0.8262    3.2517   -1.4511 H       1  UNL1        0.0653
     31 H          -0.0589    5.6068   -1.5013 H       1  UNL1        0.0631
     32 H           2.8168    4.6809    1.5812 H       1  UNL1        0.0631
     33 H           1.9116    2.3895    1.7105 H       1  UNL1        0.0653
     34 H           1.1099   -1.8082   -0.2478 H       1  UNL1        0.2583
     35 H          -1.5862   -1.2370   -0.3166 H       1  UNL1        0.0718
     36 H          -0.8255   -0.5999   -1.8040 H       1  UNL1        0.0718
     37 H           2.7101   -0.7990    0.0632 H       1  UNL1        0.2588
     38 H           2.9874    1.9937   -0.7700 H       1  UNL1        0.0795
     39 H           4.0703   -0.3520    1.9455 H       1  UNL1        0.0621
     40 H           5.4272    0.4040    3.8488 H       1  UNL1        0.0618
     41 H           6.4707    2.6556    3.8349 H       1  UNL1        0.0618
     42 H           6.1986    4.1313    1.8569 H       1  UNL1        0.0618
     43 H           4.8682    3.3780   -0.0811 H       1  UNL1        0.0621
     44 H           2.3971    0.5568   -2.8464 H       1  UNL1        0.0621
     45 H           3.5445   -0.1940   -4.8934 H       1  UNL1        0.0618
     46 H           5.9792   -0.6791   -4.8588 H       1  UNL1        0.0618
     47 H           7.2587   -0.4257   -2.7476 H       1  UNL1        0.0618
     48 H           6.1426    0.3108   -0.6980 H       1  UNL1        0.0621
@<TRIPOS>UNITY_ATOM_ATTR
15 1
charge -1
@<TRIPOS>BOND
     1     1     2    2
     2     2     3    1
     3     3     4   ar
     4     4     5   ar
     5     5     6   ar
     6     6     7    1
     7     7     8    3
     8     6     9   ar
     9     9    10   ar
    10     3    10   ar
    11     1    11    1
    12    11    12    1
    13    12    13    1
    14    13    14   ar
    15    13    15   ar
    16     1    16    1
    17    16    17    1
    18    17    18    1
    19    18    19   ar
    20    19    20   ar
    21    20    21   ar
    22    21    22   ar
    23    22    23   ar
    24    18    23   ar
    25    17    24    1
    26    24    25   ar
    27    25    26   ar
    28    26    27   ar
    29    27    28   ar
    30    28    29   ar
    31    24    29   ar
    32     4    30    1
    33     5    31    1
    34     9    32    1
    35    10    33    1
    36    11    34    1
    37    12    35    1
    38    12    36    1
    39    16    37    1
    40    17    38    1
    41    19    39    1
    42    20    40    1
    43    21    41    1
    44    22    42    1
    45    23    43    1
    46    25    44    1
    47    26    45    1
    48    27    46    1
    49    28    47    1
    50    29    48    1
