@<TRIPOS>MOLECULE
1397_4o0x_orig
 46 49 0 0 0
SMALL
GASTEIGER

@<TRIPOS>ATOM
      1 C           0.0000    0.0000    0.0000 C.3     1  UNL1       -0.0058
      2 C           0.0000    0.0000    0.0000 C.ar    1  UNL1        0.1144
      3 N           0.0000    0.0000    0.0000 N.ar    1  UNL1       -0.2321
      4 C           0.0000    0.0000    0.0000 C.ar    1  UNL1        0.0898
      5 C           0.0000    0.0000    0.0000 C.ar    1  UNL1       -0.0331
      6 C           0.0000    0.0000    0.0000 C.ar    1  UNL1       -0.0442
      7 C           0.0000    0.0000    0.0000 C.ar    1  UNL1        0.0271
      8 C           0.0000    0.0000    0.0000 C.ar    1  UNL1       -0.0202
      9 C           0.0000    0.0000    0.0000 C.ar    1  UNL1        0.0775
     10 N           0.0000    0.0000    0.0000 N.ar    1  UNL1       -0.2645
     11 C           0.0000    0.0000    0.0000 C.ar    1  UNL1        0.2409
     12 N           0.0000    0.0000    0.0000 N.ar    1  UNL1       -0.2002
     13 C           0.0000    0.0000    0.0000 C.ar    1  UNL1        0.1234
     14 N           0.0000    0.0000    0.0000 N.ar    1  UNL1       -0.2031
     15 C           0.0000    0.0000    0.0000 C.ar    1  UNL1        0.2170
     16 N           0.0000    0.0000    0.0000 N.ar    1  UNL1       -0.1785
     17 N           0.0000    0.0000    0.0000 N.pl3   1  UNL1       -0.3274
     18 C           0.0000    0.0000    0.0000 C.1     1  UNL1       -0.0634
     19 C           0.0000    0.0000    0.0000 C.1     1  UNL1       -0.0624
     20 C           0.0000    0.0000    0.0000 C.3     1  UNL1        0.1267
     21 C           0.0000    0.0000    0.0000 C.3     1  UNL1       -0.0126
     22 C           0.0000    0.0000    0.0000 C.3     1  UNL1       -0.0495
     23 C           0.0000    0.0000    0.0000 C.3     1  UNL1       -0.0528
     24 C           0.0000    0.0000    0.0000 C.3     1  UNL1       -0.0495
     25 C           0.0000    0.0000    0.0000 C.3     1  UNL1       -0.0126
     26 O           0.0000    0.0000    0.0000 O.3     1  UNL1       -0.3765
     27 H           0.0000    0.0000    0.0000 H       1  UNL1        0.0308
     28 H           0.0000    0.0000    0.0000 H       1  UNL1        0.0308
     29 H           0.0000    0.0000    0.0000 H       1  UNL1        0.0308
     30 H           0.0000    0.0000    0.0000 H       1  UNL1        0.0640
     31 H           0.0000    0.0000    0.0000 H       1  UNL1        0.0630
     32 H           0.0000    0.0000    0.0000 H       1  UNL1        0.0651
     33 H           0.0000    0.0000    0.0000 H       1  UNL1        0.1049
     34 H           0.0000    0.0000    0.0000 H       1  UNL1        0.1452
     35 H           0.0000    0.0000    0.0000 H       1  UNL1        0.1452
     36 H           0.0000    0.0000    0.0000 H       1  UNL1        0.0303
     37 H           0.0000    0.0000    0.0000 H       1  UNL1        0.0303
     38 H           0.0000    0.0000    0.0000 H       1  UNL1        0.0266
     39 H           0.0000    0.0000    0.0000 H       1  UNL1        0.0266
     40 H           0.0000    0.0000    0.0000 H       1  UNL1        0.0265
     41 H           0.0000    0.0000    0.0000 H       1  UNL1        0.0265
     42 H           0.0000    0.0000    0.0000 H       1  UNL1        0.0266
     43 H           0.0000    0.0000    0.0000 H       1  UNL1        0.0266
     44 H           0.0000    0.0000    0.0000 H       1  UNL1        0.0303
     45 H           0.0000    0.0000    0.0000 H       1  UNL1        0.0303
     46 H           0.0000    0.0000    0.0000 H       1  UNL1        0.2114
@<TRIPOS>BOND
     1     1     2    1
     2     2     3   ar
     3     3     4   ar
     4     4     5   ar
     5     5     6   ar
     6     6     7   ar
     7     7     8   ar
     8     8     9   ar
     9     4     9   ar
    10     9    10   ar
    11     2    10   ar
    12    10    11    1
    13    11    12   ar
    14    12    13   ar
    15    13    14   ar
    16    14    15   ar
    17    15    16   ar
    18    11    16   ar
    19    15    17    1
    20     7    18    1
    21    18    19    3
    22    19    20    1
    23    20    21    1
    24    21    22    1
    25    22    23    1
    26    23    24    1
    27    24    25    1
    28    20    25    1
    29    20    26    1
    30     1    27    1
    31     1    28    1
    32     1    29    1
    33     5    30    1
    34     6    31    1
    35     8    32    1
    36    13    33    1
    37    17    34    1
    38    17    35    1
    39    21    36    1
    40    21    37    1
    41    22    38    1
    42    22    39    1
    43    23    40    1
    44    23    41    1
    45    24    42    1
    46    24    43    1
    47    25    44    1
    48    25    45    1
    49    26    46    1
@<TRIPOS>MOLECULE
1683_5htz_pH7
 44 46 0 0 0
SMALL
GASTEIGER

@<TRIPOS>ATOM
      1 C           0.0000    0.0000    0.0000 C.ar    1  UNL1        0.0080
      2 C           0.0000    0.0000    0.0000 C.ar    1  UNL1        0.0226
      3 C           0.0000    0.0000    0.0000 C.ar    1  UNL1       -0.0281
      4 C           0.0000    0.0000    0.0000 C.ar    1  UNL1        0.0552
      5 C           0.0000    0.0000    0.0000 C.ar    1  UNL1        0.0477
      6 C           0.0000    0.0000    0.0000 C.3     1  UNL1        0.1317
      7 C           0.0000    0.0000    0.0000 C.3     1  UNL1       -0.0237
      8 C           0.0000    0.0000    0.0000 C.3     1  UNL1        0.1361
      9 S           0.0000    0.0000    0.0000 S.O2    1  UNL1        0.0903
     10 O           0.0000    0.0000    0.0000 O.2     1  UNL1       -0.1422
     11 O           0.0000    0.0000    0.0000 O.2     1  UNL1       -0.1422
     12 N           0.0000    0.0000    0.0000 N.pl3   1  UNL1       -0.0959
     13 C           0.0000    0.0000    0.0000 C.cat   1  UNL1        0.3517
     14 N           0.0000    0.0000    0.0000 N.2     1  UNL1       -0.2936
     15 N           0.0000    0.0000    0.0000 N.pl3   1  UNL1       -0.2282
     16 C           0.0000    0.0000    0.0000 C.3     1  UNL1        0.0748
     17 S           0.0000    0.0000    0.0000 S.2     1  UNL1       -0.0881
     18 CL          0.0000    0.0000    0.0000 Cl      1  UNL1       -0.0826
     19 C           0.0000    0.0000    0.0000 C.ar    1  UNL1       -0.0352
     20 C           0.0000    0.0000    0.0000 C.ar    1  UNL1        0.0436
     21 C           0.0000    0.0000    0.0000 C.1     1  UNL1       -0.0650
     22 C           0.0000    0.0000    0.0000 C.1     1  UNL1       -0.1003
     23 C           0.0000    0.0000    0.0000 C.3     1  UNL1       -0.0022
     24 C           0.0000    0.0000    0.0000 C.ar    1  UNL1        0.0430
     25 N           0.0000    0.0000    0.0000 N.ar    1  UNL1       -0.2614
     26 C           0.0000    0.0000    0.0000 C.ar    1  UNL1        0.0358
     27 H           0.0000    0.0000    0.0000 H       1  UNL1        0.0644
     28 H           0.0000    0.0000    0.0000 H       1  UNL1        0.0268
     29 H           0.0000    0.0000    0.0000 H       1  UNL1        0.0268
     30 H           0.0000    0.0000    0.0000 H       1  UNL1        0.0268
     31 H           0.0000    0.0000    0.0000 H       1  UNL1        0.0571
     32 H           0.0000    0.0000    0.0000 H       1  UNL1        0.0571
     33 H           0.0000    0.0000    0.0000 H       1  UNL1        0.2542
     34 H           0.0000    0.0000    0.0000 H       1  UNL1        0.2542
     35 H           0.0000    0.0000    0.0000 H       1  UNL1        0.2453
     36 H           0.0000    0.0000    0.0000 H       1  UNL1        0.0619
     37 H           0.0000    0.0000    0.0000 H       1  UNL1        0.0619
     38 H           0.0000    0.0000    0.0000 H       1  UNL1        0.0619
     39 H           0.0000    0.0000    0.0000 H       1  UNL1        0.0637
     40 H           0.0000    0.0000    0.0000 H       1  UNL1        0.0362
     41 H           0.0000    0.0000    0.0000 H       1  UNL1        0.0362
     42 H           0.0000    0.0000    0.0000 H       1  UNL1        0.0362
     43 H           0.0000    0.0000    0.0000 H       1  UNL1        0.0842
     44 H           0.0000    0.0000    0.0000 H       1  UNL1        0.0836
@<TRIPOS>UNITY_ATOM_ATTR
14 1
charge 1
@<TRIPOS>BOND
     1     1     2    1
     2     2     3   ar
     3     3     4   ar
     4     4     5   ar
     5     5     6    1
     6     6     7    1
     7     6     8    1
     8     8     9    1
     9     9    10    2
    10     9    11    2
    11     9    12    1
    12    12    13    1
    13    13    14    2
    14    13    15    1
    15     6    15    1
    16    12    16    1
    17     5    17   ar
    18     2    17   ar
    19     4    18    1
    20     1    19   ar
    21    19    20   ar
    22    20    21    1
    23    21    22    3
    24    22    23    1
    25    20    24   ar
    26    24    25   ar
    27    25    26   ar
    28     1    26   ar
    29     3    27    1
    30     7    28    1
    31     7    29    1
    32     7    30    1
    33     8    31    1
    34     8    32    1
    35    14    33    1
    36    14    34    1
    37    15    35    1
    38    16    36    1
    39    16    37    1
    40    16    38    1
    41    19    39    1
    42    23    40    1
    43    23    41    1
    44    23    42    1
    45    24    43    1
    46    26    44    1
@<TRIPOS>MOLECULE
2457_1hvh_orig
 82 86 0 0 0
SMALL
GASTEIGER

@<TRIPOS>ATOM
      1 N           0.0000    0.0000    0.0000 N.2     1  UNL1        0.0067
      2 C           0.0000    0.0000    0.0000 C.cat   1  UNL1        0.3867
      3 N           0.0000    0.0000    0.0000 N.pl3   1  UNL1       -0.2142
      4 C           0.0000    0.0000    0.0000 C.3     1  UNL1        0.1042
      5 C           0.0000    0.0000    0.0000 C.3     1  UNL1        0.1160
      6 O           0.0000    0.0000    0.0000 O.3     1  UNL1       -0.3859
      7 C           0.0000    0.0000    0.0000 C.3     1  UNL1        0.1160
      8 O           0.0000    0.0000    0.0000 O.3     1  UNL1       -0.3859
      9 C           0.0000    0.0000    0.0000 C.3     1  UNL1        0.1042
     10 N           0.0000    0.0000    0.0000 N.pl3   1  UNL1       -0.2142
     11 C           0.0000    0.0000    0.0000 C.3     1  UNL1        0.0862
     12 C           0.0000    0.0000    0.0000 C.ar    1  UNL1       -0.0158
     13 C           0.0000    0.0000    0.0000 C.ar    1  UNL1       -0.0554
     14 C           0.0000    0.0000    0.0000 C.ar    1  UNL1       -0.0560
     15 C           0.0000    0.0000    0.0000 C.ar    1  UNL1       -0.0222
     16 C           0.0000    0.0000    0.0000 C.ar    1  UNL1       -0.0560
     17 C           0.0000    0.0000    0.0000 C.ar    1  UNL1       -0.0554
     18 C           0.0000    0.0000    0.0000 C.3     1  UNL1        0.0692
     19 O           0.0000    0.0000    0.0000 O.3     1  UNL1       -0.3904
     20 C           0.0000    0.0000    0.0000 C.3     1  UNL1        0.0069
     21 C           0.0000    0.0000    0.0000 C.ar    1  UNL1       -0.0442
     22 C           0.0000    0.0000    0.0000 C.ar    1  UNL1       -0.0585
     23 C           0.0000    0.0000    0.0000 C.ar    1  UNL1       -0.0615
     24 C           0.0000    0.0000    0.0000 C.ar    1  UNL1       -0.0617
     25 C           0.0000    0.0000    0.0000 C.ar    1  UNL1       -0.0615
     26 C           0.0000    0.0000    0.0000 C.ar    1  UNL1       -0.0585
     27 C           0.0000    0.0000    0.0000 C.3     1  UNL1        0.0069
     28 C           0.0000    0.0000    0.0000 C.ar    1  UNL1       -0.0442
     29 C           0.0000    0.0000    0.0000 C.ar    1  UNL1       -0.0585
     30 C           0.0000    0.0000    0.0000 C.ar    1  UNL1       -0.0615
     31 C           0.0000    0.0000    0.0000 C.ar    1  UNL1       -0.0617
     32 C           0.0000    0.0000    0.0000 C.ar    1  UNL1       -0.0615
     33 C           0.0000    0.0000    0.0000 C.ar    1  UNL1       -0.0585
     34 C           0.0000    0.0000    0.0000 C.3     1  UNL1        0.0862
     35 C           0.0000    0.0000    0.0000 C.ar    1  UNL1       -0.0158
     36 C           0.0000    0.0000    0.0000 C.ar    1  UNL1       -0.0554
     37 C           0.0000    0.0000    0.0000 C.ar    1  UNL1       -0.0560
     38 C           0.0000    0.0000    0.0000 C.ar    1  UNL1       -0.0222
     39 C           0.0000    0.0000    0.0000 C.ar    1  UNL1       -0.0560
     40 C           0.0000    0.0000    0.0000 C.ar    1  UNL1       -0.0554
     41 C           0.0000    0.0000    0.0000 C.3     1  UNL1        0.0692
     42 O           0.0000    0.0000    0.0000 O.3     1  UNL1       -0.3904
     43 C           0.0000    0.0000    0.0000 C.1     1  UNL1        0.2951
     44 N           0.0000    0.0000    0.0000 N.1     1  UNL1       -0.1505
     45 H           0.0000    0.0000    0.0000 H       1  UNL1        0.0701
     46 H           0.0000    0.0000    0.0000 H       1  UNL1        0.0653
     47 H           0.0000    0.0000    0.0000 H       1  UNL1        0.2100
     48 H           0.0000    0.0000    0.0000 H       1  UNL1        0.0653
     49 H           0.0000    0.0000    0.0000 H       1  UNL1        0.2100
     50 H           0.0000    0.0000    0.0000 H       1  UNL1        0.0701
     51 H           0.0000    0.0000    0.0000 H       1  UNL1        0.0685
     52 H           0.0000    0.0000    0.0000 H       1  UNL1        0.0685
     53 H           0.0000    0.0000    0.0000 H       1  UNL1        0.0621
     54 H           0.0000    0.0000    0.0000 H       1  UNL1        0.0621
     55 H           0.0000    0.0000    0.0000 H       1  UNL1        0.0621
     56 H           0.0000    0.0000    0.0000 H       1  UNL1        0.0621
     57 H           0.0000    0.0000    0.0000 H       1  UNL1        0.0607
     58 H           0.0000    0.0000    0.0000 H       1  UNL1        0.0607
     59 H           0.0000    0.0000    0.0000 H       1  UNL1        0.2098
     60 H           0.0000    0.0000    0.0000 H       1  UNL1        0.0346
     61 H           0.0000    0.0000    0.0000 H       1  UNL1        0.0346
     62 H           0.0000    0.0000    0.0000 H       1  UNL1        0.0620
     63 H           0.0000    0.0000    0.0000 H       1  UNL1        0.0618
     64 H           0.0000    0.0000    0.0000 H       1  UNL1        0.0618
     65 H           0.0000    0.0000    0.0000 H       1  UNL1        0.0618
     66 H           0.0000    0.0000    0.0000 H       1  UNL1        0.0620
     67 H           0.0000    0.0000    0.0000 H       1  UNL1        0.0346
     68 H           0.0000    0.0000    0.0000 H       1  UNL1        0.0346
     69 H           0.0000    0.0000    0.0000 H       1  UNL1        0.0620
     70 H           0.0000    0.0000    0.0000 H       1  UNL1        0.0618
     71 H           0.0000    0.0000    0.0000 H       1  UNL1        0.0618
     72 H           0.0000    0.0000    0.0000 H       1  UNL1        0.0618
     73 H           0.0000    0.0000    0.0000 H       1  UNL1        0.0620
     74 H           0.0000    0.0000    0.0000 H       1  UNL1        0.0685
     75 H           0.0000    0.0000    0.0000 H       1  UNL1        0.0685
     76 H           0.0000    0.0000    0.0000 H       1  UNL1        0.0621
     77 H           0.0000    0.0000    0.0000 H       1  UNL1        0.0621
     78 H           0.0000    0.0000    0.0000 H       1  UNL1        0.0621
     79 H           0.0000    0.0000    0.0000 H       1  UNL1        0.0621
     80 H           0.0000    0.0000    0.0000 H       1  UNL1        0.0607
     81 H           0.0000    0.0000    0.0000 H       1  UNL1        0.0607
     82 H           0.0000    0.0000    0.0000 H       1  UNL1        0.2098
@<TRIPOS>BOND
     1     1     2    2
     2     2     3    1
     3     3     4    1
     4     4     5    1
     5     5     6    1
     6     5     7    1
     7     7     8    1
     8     7     9    1
     9     9    10    1
    10     2    10    1
    11    10    11    1
    12    11    12    1
    13    12    13   ar
    14    13    14   ar
    15    14    15   ar
    16    15    16   ar
    17    16    17   ar
    18    12    17   ar
    19    15    18    1
    20    18    19    1
    21     9    20    1
    22    20    21    1
    23    21    22   ar
    24    22    23   ar
    25    23    24   ar
    26    24    25   ar
    27    25    26   ar
    28    21    26   ar
    29     4    27    1
    30    27    28    1
    31    28    29   ar
    32    29    30   ar
    33    30    31   ar
    34    31    32   ar
    35    32    33   ar
    36    28    33   ar
    37     3    34    1
    38    34    35    1
    39    35    36   ar
    40    36    37   ar
    41    37    38   ar
    42    38    39   ar
    43    39    40   ar
    44    35    40   ar
    45    38    41    1
    46    41    42    1
    47     1    43    1
    48    43    44    3
    49     4    45    1
    50     5    46    1
    51     6    47    1
    52     7    48    1
    53     8    49    1
    54     9    50    1
    55    11    51    1
    56    11    52    1
    57    13    53    1
    58    14    54    1
    59    16    55    1
    60    17    56    1
    61    18    57    1
    62    18    58    1
    63    19    59    1
    64    20    60    1
    65    20    61    1
    66    22    62    1
    67    23    63    1
    68    24    64    1
    69    25    65    1
    70    26    66    1
    71    27    67    1
    72    27    68    1
    73    29    69    1
    74    30    70    1
    75    31    71    1
    76    32    72    1
    77    33    73    1
    78    34    74    1
    79    34    75    1
    80    36    76    1
    81    37    77    1
    82    39    78    1
    83    40    79    1
    84    41    80    1
    85    41    81    1
    86    42    82    1
@<TRIPOS>MOLECULE
3656_4o0y_orig
 44 46 0 0 0
SMALL
GASTEIGER

@<TRIPOS>ATOM
      1 C           0.0000    0.0000    0.0000 C.3     1  UNL1       -0.0495
      2 C           0.0000    0.0000    0.0000 C.3     1  UNL1        0.0089
      3 N           0.0000    0.0000    0.0000 N.pl3   1  UNL1       -0.3147
      4 C           0.0000    0.0000    0.0000 C.ar    1  UNL1        0.2035
      5 N           0.0000    0.0000    0.0000 N.ar    1  UNL1       -0.2141
      6 C           0.0000    0.0000    0.0000 C.ar    1  UNL1        0.0914
      7 C           0.0000    0.0000    0.0000 C.ar    1  UNL1       -0.0330
      8 C           0.0000    0.0000    0.0000 C.ar    1  UNL1       -0.0442
      9 C           0.0000    0.0000    0.0000 C.ar    1  UNL1        0.0271
     10 C           0.0000    0.0000    0.0000 C.ar    1  UNL1       -0.0202
     11 C           0.0000    0.0000    0.0000 C.ar    1  UNL1        0.0791
     12 N           0.0000    0.0000    0.0000 N.ar    1  UNL1       -0.2486
     13 C           0.0000    0.0000    0.0000 C.ar    1  UNL1        0.2421
     14 N           0.0000    0.0000    0.0000 N.ar    1  UNL1       -0.2001
     15 C           0.0000    0.0000    0.0000 C.ar    1  UNL1        0.1234
     16 N           0.0000    0.0000    0.0000 N.ar    1  UNL1       -0.2031
     17 C           0.0000    0.0000    0.0000 C.ar    1  UNL1        0.2170
     18 N           0.0000    0.0000    0.0000 N.ar    1  UNL1       -0.1785
     19 N           0.0000    0.0000    0.0000 N.pl3   1  UNL1       -0.3274
     20 C           0.0000    0.0000    0.0000 C.1     1  UNL1       -0.0634
     21 C           0.0000    0.0000    0.0000 C.1     1  UNL1       -0.0630
     22 C           0.0000    0.0000    0.0000 C.3     1  UNL1        0.1212
     23 C           0.0000    0.0000    0.0000 C.3     1  UNL1       -0.0249
     24 C           0.0000    0.0000    0.0000 C.3     1  UNL1       -0.0249
     25 O           0.0000    0.0000    0.0000 O.3     1  UNL1       -0.3771
     26 H           0.0000    0.0000    0.0000 H       1  UNL1        0.0245
     27 H           0.0000    0.0000    0.0000 H       1  UNL1        0.0245
     28 H           0.0000    0.0000    0.0000 H       1  UNL1        0.0245
     29 H           0.0000    0.0000    0.0000 H       1  UNL1        0.0459
     30 H           0.0000    0.0000    0.0000 H       1  UNL1        0.0459
     31 H           0.0000    0.0000    0.0000 H       1  UNL1        0.1489
     32 H           0.0000    0.0000    0.0000 H       1  UNL1        0.0640
     33 H           0.0000    0.0000    0.0000 H       1  UNL1        0.0630
     34 H           0.0000    0.0000    0.0000 H       1  UNL1        0.0651
     35 H           0.0000    0.0000    0.0000 H       1  UNL1        0.1049
     36 H           0.0000    0.0000    0.0000 H       1  UNL1        0.1452
     37 H           0.0000    0.0000    0.0000 H       1  UNL1        0.1452
     38 H           0.0000    0.0000    0.0000 H       1  UNL1        0.0267
     39 H           0.0000    0.0000    0.0000 H       1  UNL1        0.0267
     40 H           0.0000    0.0000    0.0000 H       1  UNL1        0.0267
     41 H           0.0000    0.0000    0.0000 H       1  UNL1        0.0267
     42 H           0.0000    0.0000    0.0000 H       1  UNL1        0.0267
     43 H           0.0000    0.0000    0.0000 H       1  UNL1        0.0267
     44 H           0.0000    0.0000    0.0000 H       1  UNL1        0.2114
@<TRIPOS>BOND
     1     1     2    1
     2     2     3    1
     3     3     4    1
     4     4     5   ar
     5     5     6   ar
     6     6     7   ar
     7     7     8   ar
     8     8     9   ar
     9     9    10   ar
    10    10    11   ar
    11     6    11   ar
    12    11    12   ar
    13     4    12   ar
    14    12    13    1
    15    13    14   ar
    16    14    15   ar
    17    15    16   ar
    18    16    17   ar
    19    17    18   ar
    20    13    18   ar
    21    17    19    1
    22     9    20    1
    23    20    21    3
    24    21    22    1
    25    22    23    1
    26    22    24    1
    27    22    25    1
    28     1    26    1
    29     1    27    1
    30     1    28    1
    31     2    29    1
    32     2    30    1
    33     3    31    1
    34     7    32    1
    35     8    33    1
    36    10    34    1
    37    15    35    1
    38    19    36    1
    39    19    37    1
    40    23    38    1
    41    23    39    1
    42    23    40    1
    43    24    41    1
    44    24    42    1
    45    24    43    1
    46    25    44    1
@<TRIPOS>MOLECULE
3947_5htz_non-chg
 43 45 0 0 0
SMALL
GASTEIGER

@<TRIPOS>ATOM
      1 C           0.0000    0.0000    0.0000 C.ar    1  UNL1        0.0080
      2 C           0.0000    0.0000    0.0000 C.ar    1  UNL1        0.0226
      3 C           0.0000    0.0000    0.0000 C.ar    1  UNL1       -0.0281
      4 C           0.0000    0.0000    0.0000 C.ar    1  UNL1        0.0552
      5 C           0.0000    0.0000    0.0000 C.ar    1  UNL1        0.0477
      6 C           0.0000    0.0000    0.0000 C.3     1  UNL1        0.1318
      7 C           0.0000    0.0000    0.0000 C.3     1  UNL1       -0.0237
      8 C           0.0000    0.0000    0.0000 C.3     1  UNL1        0.1361
      9 S           0.0000    0.0000    0.0000 S.O2    1  UNL1        0.0904
     10 O           0.0000    0.0000    0.0000 O.2     1  UNL1       -0.1422
     11 O           0.0000    0.0000    0.0000 O.2     1  UNL1       -0.1422
     12 N           0.0000    0.0000    0.0000 N.pl3   1  UNL1       -0.0933
     13 C           0.0000    0.0000    0.0000 C.cat   1  UNL1        0.3869
     14 N           0.0000    0.0000    0.0000 N.2     1  UNL1       -0.1318
     15 N           0.0000    0.0000    0.0000 N.pl3   1  UNL1       -0.2256
     16 C           0.0000    0.0000    0.0000 C.3     1  UNL1        0.0749
     17 S           0.0000    0.0000    0.0000 S.2     1  UNL1       -0.0881
     18 CL          0.0000    0.0000    0.0000 Cl      1  UNL1       -0.0826
     19 C           0.0000    0.0000    0.0000 C.ar    1  UNL1       -0.0352
     20 C           0.0000    0.0000    0.0000 C.ar    1  UNL1        0.0436
     21 C           0.0000    0.0000    0.0000 C.1     1  UNL1       -0.0650
     22 C           0.0000    0.0000    0.0000 C.1     1  UNL1       -0.1003
     23 C           0.0000    0.0000    0.0000 C.3     1  UNL1       -0.0022
     24 C           0.0000    0.0000    0.0000 C.ar    1  UNL1        0.0430
     25 N           0.0000    0.0000    0.0000 N.ar    1  UNL1       -0.2614
     26 C           0.0000    0.0000    0.0000 C.ar    1  UNL1        0.0358
     27 H           0.0000    0.0000    0.0000 H       1  UNL1        0.0644
     28 H           0.0000    0.0000    0.0000 H       1  UNL1        0.0268
     29 H           0.0000    0.0000    0.0000 H       1  UNL1        0.0268
     30 H           0.0000    0.0000    0.0000 H       1  UNL1        0.0268
     31 H           0.0000    0.0000    0.0000 H       1  UNL1        0.0571
     32 H           0.0000    0.0000    0.0000 H       1  UNL1        0.0571
     33 H           0.0000    0.0000    0.0000 H       1  UNL1        0.3059
     34 H           0.0000    0.0000    0.0000 H       1  UNL1        0.2454
     35 H           0.0000    0.0000    0.0000 H       1  UNL1        0.0619
     36 H           0.0000    0.0000    0.0000 H       1  UNL1        0.0619
     37 H           0.0000    0.0000    0.0000 H       1  UNL1        0.0619
     38 H           0.0000    0.0000    0.0000 H       1  UNL1        0.0637
     39 H           0.0000    0.0000    0.0000 H       1  UNL1        0.0362
     40 H           0.0000    0.0000    0.0000 H       1  UNL1        0.0362
     41 H           0.0000    0.0000    0.0000 H       1  UNL1        0.0362
     42 H           0.0000    0.0000    0.0000 H       1  UNL1        0.0842
     43 H           0.0000    0.0000    0.0000 H       1  UNL1        0.0836
@<TRIPOS>BOND
     1     1     2    1
     2     2     3   ar
     3     3     4   ar
     4     4     5   ar
     5     5     6    1
     6     6     7    1
     7     6     8    1
     8     8     9    1
     9     9    10    2
    10     9    11    2
    11     9    12    1
    12    12    13    1
    13    13    14    2
    14    13    15    1
    15     6    15    1
    16    12    16    1
    17     5    17   ar
    18     2    17   ar
    19     4    18    1
    20     1    19   ar
    21    19    20   ar
    22    20    21    1
    23    21    22    3
    24    22    23    1
    25    20    24   ar
    26    24    25   ar
    27    25    26   ar
    28     1    26   ar
    29     3    27    1
    30     7    28    1
    31     7    29    1
    32     7    30    1
    33     8    31    1
    34     8    32    1
    35    14    33    1
    36    15    34    1
    37    16    35    1
    38    16    36    1
    39    16    37    1
    40    19    38    1
    41    23    39    1
    42    23    40    1
    43    23    41    1
    44    24    42    1
    45    26    43    1
@<TRIPOS>MOLECULE
4784_1hvh_pH7
 83 87 0 0 0
SMALL
GASTEIGER

@<TRIPOS>ATOM
      1 N           0.0000    0.0000    0.0000 N.2     1  UNL1       -0.1836
      2 C           0.0000    0.0000    0.0000 C.cat   1  UNL1        0.3488
      3 N           0.0000    0.0000    0.0000 N.pl3   1  UNL1       -0.2169
      4 C           0.0000    0.0000    0.0000 C.3     1  UNL1        0.1041
      5 C           0.0000    0.0000    0.0000 C.3     1  UNL1        0.1160
      6 O           0.0000    0.0000    0.0000 O.3     1  UNL1       -0.3859
      7 C           0.0000    0.0000    0.0000 C.3     1  UNL1        0.1160
      8 O           0.0000    0.0000    0.0000 O.3     1  UNL1       -0.3859
      9 C           0.0000    0.0000    0.0000 C.3     1  UNL1        0.1041
     10 N           0.0000    0.0000    0.0000 N.pl3   1  UNL1       -0.2169
     11 C           0.0000    0.0000    0.0000 C.3     1  UNL1        0.0861
     12 C           0.0000    0.0000    0.0000 C.ar    1  UNL1       -0.0158
     13 C           0.0000    0.0000    0.0000 C.ar    1  UNL1       -0.0554
     14 C           0.0000    0.0000    0.0000 C.ar    1  UNL1       -0.0560
     15 C           0.0000    0.0000    0.0000 C.ar    1  UNL1       -0.0222
     16 C           0.0000    0.0000    0.0000 C.ar    1  UNL1       -0.0560
     17 C           0.0000    0.0000    0.0000 C.ar    1  UNL1       -0.0554
     18 C           0.0000    0.0000    0.0000 C.3     1  UNL1        0.0692
     19 O           0.0000    0.0000    0.0000 O.3     1  UNL1       -0.3904
     20 C           0.0000    0.0000    0.0000 C.3     1  UNL1        0.0069
     21 C           0.0000    0.0000    0.0000 C.ar    1  UNL1       -0.0442
     22 C           0.0000    0.0000    0.0000 C.ar    1  UNL1       -0.0585
     23 C           0.0000    0.0000    0.0000 C.ar    1  UNL1       -0.0615
     24 C           0.0000    0.0000    0.0000 C.ar    1  UNL1       -0.0617
     25 C           0.0000    0.0000    0.0000 C.ar    1  UNL1       -0.0615
     26 C           0.0000    0.0000    0.0000 C.ar    1  UNL1       -0.0585
     27 C           0.0000    0.0000    0.0000 C.3     1  UNL1        0.0069
     28 C           0.0000    0.0000    0.0000 C.ar    1  UNL1       -0.0442
     29 C           0.0000    0.0000    0.0000 C.ar    1  UNL1       -0.0585
     30 C           0.0000    0.0000    0.0000 C.ar    1  UNL1       -0.0615
     31 C           0.0000    0.0000    0.0000 C.ar    1  UNL1       -0.0617
     32 C           0.0000    0.0000    0.0000 C.ar    1  UNL1       -0.0615
     33 C           0.0000    0.0000    0.0000 C.ar    1  UNL1       -0.0585
     34 C           0.0000    0.0000    0.0000 C.3     1  UNL1        0.0861
     35 C           0.0000    0.0000    0.0000 C.ar    1  UNL1       -0.0158
     36 C           0.0000    0.0000    0.0000 C.ar    1  UNL1       -0.0554
     37 C           0.0000    0.0000    0.0000 C.ar    1  UNL1       -0.0560
     38 C           0.0000    0.0000    0.0000 C.ar    1  UNL1       -0.0222
     39 C           0.0000    0.0000    0.0000 C.ar    1  UNL1       -0.0560
     40 C           0.0000    0.0000    0.0000 C.ar    1  UNL1       -0.0554
     41 C           0.0000    0.0000    0.0000 C.3     1  UNL1        0.0692
     42 O           0.0000    0.0000    0.0000 O.3     1  UNL1       -0.3904
     43 C           0.0000    0.0000    0.0000 C.1     1  UNL1        0.2548
     44 N           0.0000    0.0000    0.0000 N.1     1  UNL1       -0.1539
     45 H           0.0000    0.0000    0.0000 H       1  UNL1        0.2776
     46 H           0.0000    0.0000    0.0000 H       1  UNL1        0.0701
     47 H           0.0000    0.0000    0.0000 H       1  UNL1        0.0653
     48 H           0.0000    0.0000    0.0000 H       1  UNL1        0.2100
     49 H           0.0000    0.0000    0.0000 H       1  UNL1        0.0653
     50 H           0.0000    0.0000    0.0000 H       1  UNL1        0.2100
     51 H           0.0000    0.0000    0.0000 H       1  UNL1        0.0701
     52 H           0.0000    0.0000    0.0000 H       1  UNL1        0.0685
     53 H           0.0000    0.0000    0.0000 H       1  UNL1        0.0685
     54 H           0.0000    0.0000    0.0000 H       1  UNL1        0.0621
     55 H           0.0000    0.0000    0.0000 H       1  UNL1        0.0621
     56 H           0.0000    0.0000    0.0000 H       1  UNL1        0.0621
     57 H           0.0000    0.0000    0.0000 H       1  UNL1        0.0621
     58 H           0.0000    0.0000    0.0000 H       1  UNL1        0.0607
     59 H           0.0000    0.0000    0.0000 H       1  UNL1        0.0607
     60 H           0.0000    0.0000    0.0000 H       1  UNL1        0.2098
     61 H           0.0000    0.0000    0.0000 H       1  UNL1        0.0346
     62 H           0.0000    0.0000    0.0000 H       1  UNL1        0.0346
     63 H           0.0000    0.0000    0.0000 H       1  UNL1        0.0620
     64 H           0.0000    0.0000    0.0000 H       1  UNL1        0.0618
     65 H           0.0000    0.0000    0.0000 H       1  UNL1        0.0618
     66 H           0.0000    0.0000    0.0000 H       1  UNL1        0.0618
     67 H           0.0000    0.0000    0.0000 H       1  UNL1        0.0620
     68 H           0.0000    0.0000    0.0000 H       1  UNL1        0.0346
     69 H           0.0000    0.0000    0.0000 H       1  UNL1        0.0346
     70 H           0.0000    0.0000    0.0000 H       1  UNL1        0.0620
     71 H           0.0000    0.0000    0.0000 H       1  UNL1        0.0618
     72 H           0.0000    0.0000    0.0000 H       1  UNL1        0.0618
     73 H           0.0000    0.0000    0.0000 H       1  UNL1        0.0618
     74 H           0.0000    0.0000    0.0000 H       1  UNL1        0.0620
     75 H           0.0000    0.0000    0.0000 H       1  UNL1        0.0685
     76 H           0.0000    0.0000    0.0000 H       1  UNL1        0.0685
     77 H           0.0000    0.0000    0.0000 H       1  UNL1        0.0621
     78 H           0.0000    0.0000    0.0000 H       1  UNL1        0.0621
     79 H           0.0000    0.0000    0.0000 H       1  UNL1        0.0621
     80 H           0.0000    0.0000    0.0000 H       1  UNL1        0.0621
     81 H           0.0000    0.0000    0.0000 H       1  UNL1        0.0607
     82 H           0.0000    0.0000    0.0000 H       1  UNL1        0.0607
     83 H           0.0000    0.0000    0.0000 H       1  UNL1        0.2098
@<TRIPOS>UNITY_ATOM_ATTR
1 1
charge 1
@<TRIPOS>BOND
     1     1     2    2
     2     2     3    1
     3     3     4    1
     4     4     5    1
     5     5     6    1
     6     5     7    1
     7     7     8    1
     8     7     9    1
     9     9    10    1
    10     2    10    1
    11    10    11    1
    12    11    12    1
    13    12    13   ar
    14    13    14   ar
    15    14    15   ar
    16    15    16   ar
    17    16    17   ar
    18    12    17   ar
    19    15    18    1
    20    18    19    1
    21     9    20    1
    22    20    21    1
    23    21    22   ar
    24    22    23   ar
    25    23    24   ar
    26    24    25   ar
    27    25    26   ar
    28    21    26   ar
    29     4    27    1
    30    27    28    1
    31    28    29   ar
    32    29    30   ar
    33    30    31   ar
    34    31    32   ar
    35    32    33   ar
    36    28    33   ar
    37     3    34    1
    38    34    35    1
    39    35    36   ar
    40    36    37   ar
    41    37    38   ar
    42    38    39   ar
    43    39    40   ar
    44    35    40   ar
    45    38    41    1
    46    41    42    1
    47     1    43    1
    48    43    44    3
    49     1    45    1
    50     4    46    1
    51     5    47    1
    52     6    48    1
    53     7    49    1
    54     8    50    1
    55     9    51    1
    56    11    52    1
    57    11    53    1
    58    13    54    1
    59    14    55    1
    60    16    56    1
    61    17    57    1
    62    18    58    1
    63    18    59    1
    64    19    60    1
    65    20    61    1
    66    20    62    1
    67    22    63    1
    68    23    64    1
    69    24    65    1
    70    25    66    1
    71    26    67    1
    72    27    68    1
    73    27    69    1
    74    29    70    1
    75    30    71    1
    76    31    72    1
    77    32    73    1
    78    33    74    1
    79    34    75    1
    80    34    76    1
    81    36    77    1
    82    37    78    1
    83    39    79    1
    84    40    80    1
    85    41    81    1
    86    41    82    1
    87    42    83    1
@<TRIPOS>MOLECULE
4841_1m48_pH7
 64 66 0 0 0
SMALL
GASTEIGER

@<TRIPOS>ATOM
      1 N           0.0000    0.0000    0.0000 N.pl3   1  UNL1       -0.2544
      2 C           0.0000    0.0000    0.0000 C.cat   1  UNL1        0.3268
      3 N           0.0000    0.0000    0.0000 N.2     1  UNL1       -0.2952
      4 N           0.0000    0.0000    0.0000 N.pl3   1  UNL1       -0.2276
      5 C           0.0000    0.0000    0.0000 C.3     1  UNL1        0.0637
      6 C           0.0000    0.0000    0.0000 C.3     1  UNL1       -0.0037
      7 C           0.0000    0.0000    0.0000 C.3     1  UNL1       -0.0444
      8 C           0.0000    0.0000    0.0000 C.3     1  UNL1       -0.0235
      9 C           0.0000    0.0000    0.0000 C.3     1  UNL1        0.0604
     10 C           0.0000    0.0000    0.0000 C.3     1  UNL1        0.0295
     11 C           0.0000    0.0000    0.0000 C.2     1  UNL1        0.2140
     12 O           0.0000    0.0000    0.0000 O.2     1  UNL1       -0.2758
     13 N           0.0000    0.0000    0.0000 N.am    1  UNL1       -0.3021
     14 C           0.0000    0.0000    0.0000 C.3     1  UNL1        0.1243
     15 C           0.0000    0.0000    0.0000 C.2     1  UNL1        0.3277
     16 O           0.0000    0.0000    0.0000 O.2     1  UNL1       -0.2487
     17 O           0.0000    0.0000    0.0000 O.3     1  UNL1       -0.4666
     18 C           0.0000    0.0000    0.0000 C.3     1  UNL1        0.0817
     19 C           0.0000    0.0000    0.0000 C.3     1  UNL1        0.0012
     20 C           0.0000    0.0000    0.0000 C.ar    1  UNL1       -0.0450
     21 C           0.0000    0.0000    0.0000 C.ar    1  UNL1       -0.0573
     22 C           0.0000    0.0000    0.0000 C.ar    1  UNL1       -0.0461
     23 C           0.0000    0.0000    0.0000 C.ar    1  UNL1        0.0253
     24 C           0.0000    0.0000    0.0000 C.ar    1  UNL1       -0.0461
     25 C           0.0000    0.0000    0.0000 C.ar    1  UNL1       -0.0573
     26 C           0.0000    0.0000    0.0000 C.1     1  UNL1       -0.0610
     27 C           0.0000    0.0000    0.0000 C.1     1  UNL1       -0.0610
     28 C           0.0000    0.0000    0.0000 C.ar    1  UNL1        0.0253
     29 C           0.0000    0.0000    0.0000 C.ar    1  UNL1       -0.0463
     30 C           0.0000    0.0000    0.0000 C.ar    1  UNL1       -0.0606
     31 C           0.0000    0.0000    0.0000 C.ar    1  UNL1       -0.0617
     32 C           0.0000    0.0000    0.0000 C.ar    1  UNL1       -0.0606
     33 C           0.0000    0.0000    0.0000 C.ar    1  UNL1       -0.0463
     34 H           0.0000    0.0000    0.0000 H       1  UNL1        0.2411
     35 H           0.0000    0.0000    0.0000 H       1  UNL1        0.2411
     36 H           0.0000    0.0000    0.0000 H       1  UNL1        0.2542
     37 H           0.0000    0.0000    0.0000 H       1  UNL1        0.2542
     38 H           0.0000    0.0000    0.0000 H       1  UNL1        0.0637
     39 H           0.0000    0.0000    0.0000 H       1  UNL1        0.0637
     40 H           0.0000    0.0000    0.0000 H       1  UNL1        0.0334
     41 H           0.0000    0.0000    0.0000 H       1  UNL1        0.0270
     42 H           0.0000    0.0000    0.0000 H       1  UNL1        0.0270
     43 H           0.0000    0.0000    0.0000 H       1  UNL1        0.0294
     44 H           0.0000    0.0000    0.0000 H       1  UNL1        0.0294
     45 H           0.0000    0.0000    0.0000 H       1  UNL1        0.0634
     46 H           0.0000    0.0000    0.0000 H       1  UNL1        0.0634
     47 H           0.0000    0.0000    0.0000 H       1  UNL1        0.0362
     48 H           0.0000    0.0000    0.0000 H       1  UNL1        0.0362
     49 H           0.0000    0.0000    0.0000 H       1  UNL1        0.1495
     50 H           0.0000    0.0000    0.0000 H       1  UNL1        0.0618
     51 H           0.0000    0.0000    0.0000 H       1  UNL1        0.0661
     52 H           0.0000    0.0000    0.0000 H       1  UNL1        0.0661
     53 H           0.0000    0.0000    0.0000 H       1  UNL1        0.0661
     54 H           0.0000    0.0000    0.0000 H       1  UNL1        0.0337
     55 H           0.0000    0.0000    0.0000 H       1  UNL1        0.0337
     56 H           0.0000    0.0000    0.0000 H       1  UNL1        0.0621
     57 H           0.0000    0.0000    0.0000 H       1  UNL1        0.0630
     58 H           0.0000    0.0000    0.0000 H       1  UNL1        0.0630
     59 H           0.0000    0.0000    0.0000 H       1  UNL1        0.0621
     60 H           0.0000    0.0000    0.0000 H       1  UNL1        0.0630
     61 H           0.0000    0.0000    0.0000 H       1  UNL1        0.0618
     62 H           0.0000    0.0000    0.0000 H       1  UNL1        0.0618
     63 H           0.0000    0.0000    0.0000 H       1  UNL1        0.0618
     64 H           0.0000    0.0000    0.0000 H       1  UNL1        0.0630
@<TRIPOS>UNITY_ATOM_ATTR
3 1
charge 1
@<TRIPOS>BOND
     1     1     2    1
     2     2     3    2
     3     2     4    1
     4     4     5    1
     5     5     6    1
     6     6     7    1
     7     7     8    1
     8     8     9    1
     9     4     9    1
    10     6    10    1
    11    10    11    1
    12    11    12    2
    13    11    13   am
    14    13    14    1
    15    14    15    1
    16    15    16    2
    17    15    17    1
    18    17    18    1
    19    14    19    1
    20    19    20    1
    21    20    21   ar
    22    21    22   ar
    23    22    23   ar
    24    23    24   ar
    25    24    25   ar
    26    20    25   ar
    27    23    26    1
    28    26    27    3
    29    27    28    1
    30    28    29   ar
    31    29    30   ar
    32    30    31   ar
    33    31    32   ar
    34    32    33   ar
    35    28    33   ar
    36     1    34    1
    37     1    35    1
    38     3    36    1
    39     3    37    1
    40     5    38    1
    41     5    39    1
    42     6    40    1
    43     7    41    1
    44     7    42    1
    45     8    43    1
    46     8    44    1
    47     9    45    1
    48     9    46    1
    49    10    47    1
    50    10    48    1
    51    13    49    1
    52    14    50    1
    53    18    51    1
    54    18    52    1
    55    18    53    1
    56    19    54    1
    57    19    55    1
    58    21    56    1
    59    22    57    1
    60    24    58    1
    61    25    59    1
    62    29    60    1
    63    30    61    1
    64    31    62    1
    65    32    63    1
    66    33    64    1
@<TRIPOS>MOLECULE
4842_1m48_non-chg
 63 65 0 0 0
SMALL
GASTEIGER

@<TRIPOS>ATOM
      1 N           0.0000    0.0000    0.0000 N.pl3   1  UNL1       -0.2518
      2 C           0.0000    0.0000    0.0000 C.cat   1  UNL1        0.3620
      3 N           0.0000    0.0000    0.0000 N.2     1  UNL1       -0.1335
      4 N           0.0000    0.0000    0.0000 N.pl3   1  UNL1       -0.2250
      5 C           0.0000    0.0000    0.0000 C.3     1  UNL1        0.0638
      6 C           0.0000    0.0000    0.0000 C.3     1  UNL1       -0.0037
      7 C           0.0000    0.0000    0.0000 C.3     1  UNL1       -0.0444
      8 C           0.0000    0.0000    0.0000 C.3     1  UNL1       -0.0235
      9 C           0.0000    0.0000    0.0000 C.3     1  UNL1        0.0605
     10 C           0.0000    0.0000    0.0000 C.3     1  UNL1        0.0295
     11 C           0.0000    0.0000    0.0000 C.2     1  UNL1        0.2140
     12 O           0.0000    0.0000    0.0000 O.2     1  UNL1       -0.2758
     13 N           0.0000    0.0000    0.0000 N.am    1  UNL1       -0.3021
     14 C           0.0000    0.0000    0.0000 C.3     1  UNL1        0.1243
     15 C           0.0000    0.0000    0.0000 C.2     1  UNL1        0.3277
     16 O           0.0000    0.0000    0.0000 O.2     1  UNL1       -0.2487
     17 O           0.0000    0.0000    0.0000 O.3     1  UNL1       -0.4666
     18 C           0.0000    0.0000    0.0000 C.3     1  UNL1        0.0817
     19 C           0.0000    0.0000    0.0000 C.3     1  UNL1        0.0012
     20 C           0.0000    0.0000    0.0000 C.ar    1  UNL1       -0.0450
     21 C           0.0000    0.0000    0.0000 C.ar    1  UNL1       -0.0573
     22 C           0.0000    0.0000    0.0000 C.ar    1  UNL1       -0.0461
     23 C           0.0000    0.0000    0.0000 C.ar    1  UNL1        0.0253
     24 C           0.0000    0.0000    0.0000 C.ar    1  UNL1       -0.0461
     25 C           0.0000    0.0000    0.0000 C.ar    1  UNL1       -0.0573
     26 C           0.0000    0.0000    0.0000 C.1     1  UNL1       -0.0610
     27 C           0.0000    0.0000    0.0000 C.1     1  UNL1       -0.0610
     28 C           0.0000    0.0000    0.0000 C.ar    1  UNL1        0.0253
     29 C           0.0000    0.0000    0.0000 C.ar    1  UNL1       -0.0463
     30 C           0.0000    0.0000    0.0000 C.ar    1  UNL1       -0.0606
     31 C           0.0000    0.0000    0.0000 C.ar    1  UNL1       -0.0617
     32 C           0.0000    0.0000    0.0000 C.ar    1  UNL1       -0.0606
     33 C           0.0000    0.0000    0.0000 C.ar    1  UNL1       -0.0463
     34 H           0.0000    0.0000    0.0000 H       1  UNL1        0.2412
     35 H           0.0000    0.0000    0.0000 H       1  UNL1        0.2412
     36 H           0.0000    0.0000    0.0000 H       1  UNL1        0.3058
     37 H           0.0000    0.0000    0.0000 H       1  UNL1        0.0637
     38 H           0.0000    0.0000    0.0000 H       1  UNL1        0.0637
     39 H           0.0000    0.0000    0.0000 H       1  UNL1        0.0334
     40 H           0.0000    0.0000    0.0000 H       1  UNL1        0.0270
     41 H           0.0000    0.0000    0.0000 H       1  UNL1        0.0270
     42 H           0.0000    0.0000    0.0000 H       1  UNL1        0.0294
     43 H           0.0000    0.0000    0.0000 H       1  UNL1        0.0294
     44 H           0.0000    0.0000    0.0000 H       1  UNL1        0.0634
     45 H           0.0000    0.0000    0.0000 H       1  UNL1        0.0634
     46 H           0.0000    0.0000    0.0000 H       1  UNL1        0.0362
     47 H           0.0000    0.0000    0.0000 H       1  UNL1        0.0362
     48 H           0.0000    0.0000    0.0000 H       1  UNL1        0.1495
     49 H           0.0000    0.0000    0.0000 H       1  UNL1        0.0618
     50 H           0.0000    0.0000    0.0000 H       1  UNL1        0.0661
     51 H           0.0000    0.0000    0.0000 H       1  UNL1        0.0661
     52 H           0.0000    0.0000    0.0000 H       1  UNL1        0.0661
     53 H           0.0000    0.0000    0.0000 H       1  UNL1        0.0337
     54 H           0.0000    0.0000    0.0000 H       1  UNL1        0.0337
     55 H           0.0000    0.0000    0.0000 H       1  UNL1        0.0621
     56 H           0.0000    0.0000    0.0000 H       1  UNL1        0.0630
     57 H           0.0000    0.0000    0.0000 H       1  UNL1        0.0630
     58 H           0.0000    0.0000    0.0000 H       1  UNL1        0.0621
     59 H           0.0000    0.0000    0.0000 H       1  UNL1        0.0630
     60 H           0.0000    0.0000    0.0000 H       1  UNL1        0.0618
     61 H           0.0000    0.0000    0.0000 H       1  UNL1        0.0618
     62 H           0.0000    0.0000    0.0000 H       1  UNL1        0.0618
     63 H           0.0000    0.0000    0.0000 H       1  UNL1        0.0630
@<TRIPOS>BOND
     1     1     2    1
     2     2     3    2
     3     2     4    1
     4     4     5    1
     5     5     6    1
     6     6     7    1
     7     7     8    1
     8     8     9    1
     9     4     9    1
    10     6    10    1
    11    10    11    1
    12    11    12    2
    13    11    13   am
    14    13    14    1
    15    14    15    1
    16    15    16    2
    17    15    17    1
    18    17    18    1
    19    14    19    1
    20    19    20    1
    21    20    21   ar
    22    21    22   ar
    23    22    23   ar
    24    23    24   ar
    25    24    25   ar
    26    20    25   ar
    27    23    26    1
    28    26    27    3
    29    27    28    1
    30    28    29   ar
    31    29    30   ar
    32    30    31   ar
    33    31    32   ar
    34    32    33   ar
    35    28    33   ar
    36     1    34    1
    37     1    35    1
    38     3    36    1
    39     5    37    1
    40     5    38    1
    41     6    39    1
    42     7    40    1
    43     7    41    1
    44     8    42    1
    45     8    43    1
    46     9    44    1
    47     9    45    1
    48    10    46    1
    49    10    47    1
    50    13    48    1
    51    14    49    1
    52    18    50    1
    53    18    51    1
    54    18    52    1
    55    19    53    1
    56    19    54    1
    57    21    55    1
    58    22    56    1
    59    24    57    1
    60    25    58    1
    61    29    59    1
    62    30    60    1
    63    31    61    1
    64    32    62    1
    65    33    63    1
@<TRIPOS>MOLECULE
5056_2cgr_non-chg
 49 51 0 0 0
SMALL
GASTEIGER

@<TRIPOS>ATOM
      1 C           0.0000    0.0000    0.0000 C.cat   1  UNL1        0.3878
      2 N           0.0000    0.0000    0.0000 N.pl3   1  UNL1       -0.0731
      3 C           0.0000    0.0000    0.0000 C.ar    1  UNL1        0.1420
      4 C           0.0000    0.0000    0.0000 C.ar    1  UNL1       -0.0184
      5 C           0.0000    0.0000    0.0000 C.ar    1  UNL1       -0.0410
      6 C           0.0000    0.0000    0.0000 C.ar    1  UNL1        0.0520
      7 C           0.0000    0.0000    0.0000 C.1     1  UNL1        0.0992
      8 N           0.0000    0.0000    0.0000 N.1     1  UNL1       -0.1909
      9 C           0.0000    0.0000    0.0000 C.ar    1  UNL1       -0.0410
     10 C           0.0000    0.0000    0.0000 C.ar    1  UNL1       -0.0184
     11 N           0.0000    0.0000    0.0000 N.pl3   1  UNL1       -0.2650
     12 C           0.0000    0.0000    0.0000 C.3     1  UNL1        0.1613
     13 C           0.0000    0.0000    0.0000 C.2     1  UNL1        0.3389
     14 O           0.0000    0.0000    0.0000 O.2     1  UNL1       -0.2474
     15 O           0.0000    0.0000    0.0000 O.3     1  UNL1       -0.4784
     16 N           0.0000    0.0000    0.0000 N.pl3   1  UNL1       -0.2647
     17 C           0.0000    0.0000    0.0000 C.3     1  UNL1        0.1262
     18 C           0.0000    0.0000    0.0000 C.ar    1  UNL1       -0.0065
     19 C           0.0000    0.0000    0.0000 C.ar    1  UNL1       -0.0550
     20 C           0.0000    0.0000    0.0000 C.ar    1  UNL1       -0.0614
     21 C           0.0000    0.0000    0.0000 C.ar    1  UNL1       -0.0617
     22 C           0.0000    0.0000    0.0000 C.ar    1  UNL1       -0.0614
     23 C           0.0000    0.0000    0.0000 C.ar    1  UNL1       -0.0550
     24 C           0.0000    0.0000    0.0000 C.ar    1  UNL1       -0.0065
     25 C           0.0000    0.0000    0.0000 C.ar    1  UNL1       -0.0550
     26 C           0.0000    0.0000    0.0000 C.ar    1  UNL1       -0.0614
     27 C           0.0000    0.0000    0.0000 C.ar    1  UNL1       -0.0617
     28 C           0.0000    0.0000    0.0000 C.ar    1  UNL1       -0.0614
     29 C           0.0000    0.0000    0.0000 C.ar    1  UNL1       -0.0550
     30 H           0.0000    0.0000    0.0000 H       1  UNL1        0.0653
     31 H           0.0000    0.0000    0.0000 H       1  UNL1        0.0631
     32 H           0.0000    0.0000    0.0000 H       1  UNL1        0.0631
     33 H           0.0000    0.0000    0.0000 H       1  UNL1        0.0653
     34 H           0.0000    0.0000    0.0000 H       1  UNL1        0.2585
     35 H           0.0000    0.0000    0.0000 H       1  UNL1        0.0773
     36 H           0.0000    0.0000    0.0000 H       1  UNL1        0.0773
     37 H           0.0000    0.0000    0.0000 H       1  UNL1        0.2952
     38 H           0.0000    0.0000    0.0000 H       1  UNL1        0.2588
     39 H           0.0000    0.0000    0.0000 H       1  UNL1        0.0795
     40 H           0.0000    0.0000    0.0000 H       1  UNL1        0.0621
     41 H           0.0000    0.0000    0.0000 H       1  UNL1        0.0618
     42 H           0.0000    0.0000    0.0000 H       1  UNL1        0.0618
     43 H           0.0000    0.0000    0.0000 H       1  UNL1        0.0618
     44 H           0.0000    0.0000    0.0000 H       1  UNL1        0.0621
     45 H           0.0000    0.0000    0.0000 H       1  UNL1        0.0621
     46 H           0.0000    0.0000    0.0000 H       1  UNL1        0.0618
     47 H           0.0000    0.0000    0.0000 H       1  UNL1        0.0618
     48 H           0.0000    0.0000    0.0000 H       1  UNL1        0.0618
     49 H           0.0000    0.0000    0.0000 H       1  UNL1        0.0621
@<TRIPOS>BOND
     1     1     2    2
     2     2     3    1
     3     3     4   ar
     4     4     5   ar
     5     5     6   ar
     6     6     7    1
     7     7     8    3
     8     6     9   ar
     9     9    10   ar
    10     3    10   ar
    11     1    11    1
    12    11    12    1
    13    12    13    1
    14    13    14    2
    15    13    15    1
    16     1    16    1
    17    16    17    1
    18    17    18    1
    19    18    19   ar
    20    19    20   ar
    21    20    21   ar
    22    21    22   ar
    23    22    23   ar
    24    18    23   ar
    25    17    24    1
    26    24    25   ar
    27    25    26   ar
    28    26    27   ar
    29    27    28   ar
    30    28    29   ar
    31    24    29   ar
    32     4    30    1
    33     5    31    1
    34     9    32    1
    35    10    33    1
    36    11    34    1
    37    12    35    1
    38    12    36    1
    39    15    37    1
    40    16    38    1
    41    17    39    1
    42    19    40    1
    43    20    41    1
    44    21    42    1
    45    22    43    1
    46    23    44    1
    47    25    45    1
    48    26    46    1
    49    27    47    1
    50    28    48    1
    51    29    49    1
@<TRIPOS>MOLECULE
5057_2cgr_orig
 48 50 0 0 0
SMALL
GASTEIGER

@<TRIPOS>ATOM
      1 C           0.0000    0.0000    0.0000 C.cat   1  UNL1        0.3876
      2 N           0.0000    0.0000    0.0000 N.pl3   1  UNL1       -0.0731
      3 C           0.0000    0.0000    0.0000 C.ar    1  UNL1        0.1420
      4 C           0.0000    0.0000    0.0000 C.ar    1  UNL1       -0.0184
      5 C           0.0000    0.0000    0.0000 C.ar    1  UNL1       -0.0410
      6 C           0.0000    0.0000    0.0000 C.ar    1  UNL1        0.0520
      7 C           0.0000    0.0000    0.0000 C.1     1  UNL1        0.0992
      8 N           0.0000    0.0000    0.0000 N.1     1  UNL1       -0.1909
      9 C           0.0000    0.0000    0.0000 C.ar    1  UNL1       -0.0410
     10 C           0.0000    0.0000    0.0000 C.ar    1  UNL1       -0.0184
     11 N           0.0000    0.0000    0.0000 N.pl3   1  UNL1       -0.2703
     12 C           0.0000    0.0000    0.0000 C.3     1  UNL1        0.1041
     13 C           0.0000    0.0000    0.0000 C.2     1  UNL1        0.0752
     14 O           0.0000    0.0000    0.0000 O.co2   1  UNL1       -0.5466
     15 O           0.0000    0.0000    0.0000 O.co2   1  UNL1       -0.5466
     16 N           0.0000    0.0000    0.0000 N.pl3   1  UNL1       -0.2647
     17 C           0.0000    0.0000    0.0000 C.3     1  UNL1        0.1262
     18 C           0.0000    0.0000    0.0000 C.ar    1  UNL1       -0.0065
     19 C           0.0000    0.0000    0.0000 C.ar    1  UNL1       -0.0550
     20 C           0.0000    0.0000    0.0000 C.ar    1  UNL1       -0.0614
     21 C           0.0000    0.0000    0.0000 C.ar    1  UNL1       -0.0617
     22 C           0.0000    0.0000    0.0000 C.ar    1  UNL1       -0.0614
     23 C           0.0000    0.0000    0.0000 C.ar    1  UNL1       -0.0550
     24 C           0.0000    0.0000    0.0000 C.ar    1  UNL1       -0.0065
     25 C           0.0000    0.0000    0.0000 C.ar    1  UNL1       -0.0550
     26 C           0.0000    0.0000    0.0000 C.ar    1  UNL1       -0.0614
     27 C           0.0000    0.0000    0.0000 C.ar    1  UNL1       -0.0617
     28 C           0.0000    0.0000    0.0000 C.ar    1  UNL1       -0.0614
     29 C           0.0000    0.0000    0.0000 C.ar    1  UNL1       -0.0550
     30 H           0.0000    0.0000    0.0000 H       1  UNL1        0.0653
     31 H           0.0000    0.0000    0.0000 H       1  UNL1        0.0631
     32 H           0.0000    0.0000    0.0000 H       1  UNL1        0.0631
     33 H           0.0000    0.0000    0.0000 H       1  UNL1        0.0653
     34 H           0.0000    0.0000    0.0000 H       1  UNL1        0.2583
     35 H           0.0000    0.0000    0.0000 H       1  UNL1        0.0718
     36 H           0.0000    0.0000    0.0000 H       1  UNL1        0.0718
     37 H           0.0000    0.0000    0.0000 H       1  UNL1        0.2588
     38 H           0.0000    0.0000    0.0000 H       1  UNL1        0.0795
     39 H           0.0000    0.0000    0.0000 H       1  UNL1        0.0621
     40 H           0.0000    0.0000    0.0000 H       1  UNL1        0.0618
     41 H           0.0000    0.0000    0.0000 H       1  UNL1        0.0618
     42 H           0.0000    0.0000    0.0000 H       1  UNL1        0.0618
     43 H           0.0000    0.0000    0.0000 H       1  UNL1        0.0621
     44 H           0.0000    0.0000    0.0000 H       1  UNL1        0.0621
     45 H           0.0000    0.0000    0.0000 H       1  UNL1        0.0618
     46 H           0.0000    0.0000    0.0000 H       1  UNL1        0.0618
     47 H           0.0000    0.0000    0.0000 H       1  UNL1        0.0618
     48 H           0.0000    0.0000    0.0000 H       1  UNL1        0.0621
@<TRIPOS>UNITY_ATOM_ATTR
15 1
charge -1
@<TRIPOS>BOND
     1     1     2    2
     2     2     3    1
     3     3     4   ar
     4     4     5   ar
     5     5     6   ar
     6     6     7    1
     7     7     8    3
     8     6     9   ar
     9     9    10   ar
    10     3    10   ar
    11     1    11    1
    12    11    12    1
    13    12    13    1
    14    13    14   ar
    15    13    15   ar
    16     1    16    1
    17    16    17    1
    18    17    18    1
    19    18    19   ar
    20    19    20   ar
    21    20    21   ar
    22    21    22   ar
    23    22    23   ar
    24    18    23   ar
    25    17    24    1
    26    24    25   ar
    27    25    26   ar
    28    26    27   ar
    29    27    28   ar
    30    28    29   ar
    31    24    29   ar
    32     4    30    1
    33     5    31    1
    34     9    32    1
    35    10    33    1
    36    11    34    1
    37    12    35    1
    38    12    36    1
    39    16    37    1
    40    17    38    1
    41    19    39    1
    42    20    40    1
    43    21    41    1
    44    22    42    1
    45    23    43    1
    46    25    44    1
    47    26    45    1
    48    27    46    1
    49    28    47    1
    50    29    48    1
